#
# Generated from file mitsootmodel1atmsymp2004.mec.txt
# by ck2cti on Mon Aug 27 11:00:10 2007
#
# Transport data from file tranmitsymp2004.dat.

units(length = "cm", time = "s", quantity = "mol", act_energy = "cal/mol")


ideal_gas(name = "gas",
      elements = " H  O  C  N ",
      species = """ H  H2  C  CH  CH2  HCH  CH3  CH4  O  OH 
                   H2O  C2  C2H  C2H2  C2H3  C2H4  CO  N2  HCO  C2H5 
                   C2H6  CH2O  CH3O  CH2OH  CH3OH  O2  HO2  H2O2  C3H2  H2CCCH 
                   C3H4CY  C3H4  C3H4P  C2O  C3H5  HCCO  C3H6  CH2CO  HCCOH  NC3H7 
                   IC3H7  CH2CHO  CH3CO  C3H8  CH3CHO  CO2  CH3OCH2  CH3OCH3  C4H  C4H2 
                   HCCHCCH  H2CCCCH  C4H4  CH2CHCHCH  CH2CHCCH2  HCCCO  C4H6-1  C4H612  C4H613  HCCCHO 
                   I-C4H7  CH2CHCO  CHCHCHO  C4H8  CH2CHCHO  C2H5CO  C2H5CHO  CH3COCH3  C5H2(L)  C5H3 
                   C5H3(L)  C5H4  C5H4(L)  C5H5  C5H4H  C5H5(L)  C5H6  H2C4O  C6H  C6H2 
                   C6H3  BENZYNE  C6H4  C6H5  C6H5(L)  C6H6  C6H6F  C6H7  C6H813  C6H814 
                   C5H5CH3  C5H4O  C5H5O  C5H4OH  C6H5CH  C7H7  C7H8  C6H5O  C6H4OH  C6H5OH 
                   A1C2HJ2  C8H6  C6H5CHCH  C8H7J2  C8H8  C6H5CO  C8H9  C8H10  C6H5CHO  C6H3O2 
                   C6H5CH2OH  C7H8O  C6H5OCH3  OC6H4O2  PC6H4O2  INDENEJ  C6H5C3H2  INDENE  C6H3O3  A2T1 
                   A2T2  C10H7J1  C10H7J2  C10H8  A2CH2-1  A2CH2-2  A2CH3-1  A2CH3-2  C10H7O-1  C10H7O-2 
                   C10H7OH-1  C10H7OH-2  A2R5T  A2C2H-1J2  A2C2H-2J1  A2C2H-2J3  A2R5J1  A2R5J3  A2R5J4  A2R5J5 
                   A2C2H-1  A2C2H-2  A2R5  BIPHEN  A2VINP  C12H9  HA2R5  BIPHENH  A2C2H3-2  C12H10 
                   A2R5H2  FLUORENE  BENZYLBJ  BENZYLB  C6H5OC6H5  A2R5YN1J2  A2R5YN3J4  A2R5YN4J3  A2R5YN4J5  A2R5YN5J4 
                   A2R5YNE1  A2R5YNE3  A2R5YNE4  A2R5YNE5  A2R5R5  A3J1  A3J2  A3J4  A3J9  A3LJ1 
                   A3LJ2  A3LJ9  A3  A3L  A3CH2  A3CH2R  A3CH3  A3C2H-1JP  A3C2H-2JS  A3LC2H-1P 
                   A3LC2H-2S  A3LC2H-2P  A3C2H-1  A3C2H-2  A3LC2H-1  A3LC2H-2  A21C6H4  A22C6H4  FLTHNJ1  FLTHNJ3 
                   FLTHNJ7  A3R5J7  A3R5J10  A3LR5JS  PYRENEJ1  PYRENEJ2  PYRENEJ4  A2C6H5-2  FLTHN  A3R5 
                   A3LR5  PYRENE  C17H12  BENZNAPJP  BENZNAP  CPCDPYRJS  PYC2H-1JP  PYC2H-2JS  PYC2H-4JS  CPCDFLTJS 
                   BGHIF-  CPCDPYR  PYC2H-1  PYC2H-2  PYC2H-4  CPCDFLTH  BGHIF  A4J1  A4J4  A4J12 
                   A4LJS  CHRYSENJ1  CHRYSENJ4  CHRYSENJ5  A4  A4L  CHRYSEN  BGHIFRJS  COR-  BGHIFR 
                   COR  DCPCDFG  BAPYRJS  BEPYRENJS  PERYLENJS  BBFLUORJS  BAPYR  BEPYREN  PERYLEN  BBFLUOR 
                   BKFLUOR  COR1-  COR1  ANTHANJS  BGHIPEJS1  ANTHAN  BGHIPER  INPYR  COR2-  COR2 
                   CPBPER  COR3-  COR3  COR4-  COR4  HB  BIN1  BIN1J  BIN2  BIN2J 
                   BIN3  BIN3J  BIN4  BIN4J  BIN5  BIN5J  BIN6  BIN6J  BIN7  BIN7J 
                   BIN8  BIN8J  BIN9  BIN9J  BIN10  BIN10J  BIN11  BIN11J  BIN12  BIN12J 
                   BIN13  BIN13J  BIN14  BIN14J  BIN15  BIN15J  BIN16  BIN16J  BIN17  BIN17J 
                   BIN18  BIN18J  BIN19  BIN19J  BIN20  BIN20J """,
      reactions = "all",
      transport = "Mix",
      initial_state = state(temperature = 300.0,
                        pressure = OneAtm)    )



#-------------------------------------------------------------------------------
#  Species data 
#-------------------------------------------------------------------------------

species(name = "H",
    atoms = " H:1 ",
    thermo = (
       NASA( [  300.00,  1000.00], [  2.500000000E+00,   0.000000000E+00, 
                0.000000000E+00,   0.000000000E+00,   0.000000000E+00,
                2.547162000E+04,  -4.601176000E-01] ),
       NASA( [ 1000.00,  5000.00], [  2.500000000E+00,   0.000000000E+00, 
                0.000000000E+00,   0.000000000E+00,   0.000000000E+00,
                2.547162000E+04,  -4.601176000E-01] )
             ),
    transport = gas_transport(
                     geom = "atom",
                     diam =     2.05,
                     well_depth =   145.00),
    note = "120186"
       )

species(name = "H2",
    atoms = " H:2 ",
    thermo = (
       NASA( [  300.00,  1000.00], [  3.298124000E+00,   8.249441000E-04, 
               -8.143015000E-07,  -9.475434000E-11,   4.134872000E-13,
               -1.012520900E+03,  -3.294094000E+00] ),
       NASA( [ 1000.00,  5000.00], [  2.991423000E+00,   7.000644000E-04, 
               -5.633828000E-08,  -9.231578000E-12,   1.582751900E-15,
               -8.350340000E+02,  -1.355110100E+00] )
             ),
    transport = gas_transport(
                     geom = "linear",
                     diam =     2.92,
                     well_depth =    38.00,
                     polar =     0.79,
                     rot_relax =   280.00),
    note = "121286"
       )

species(name = "C",
    atoms = " C:1 ",
    thermo = (
       NASA( [  300.00,  1000.00], [  2.498584000E+00,   8.085776000E-05, 
               -2.697697000E-07,   3.040729000E-10,  -1.106651800E-13,
                8.545878000E+04,   4.753459000E+00] ),
       NASA( [ 1000.00,  5000.00], [  2.602087000E+00,  -1.787081000E-04, 
                9.087041000E-08,  -1.149933300E-11,   3.310844000E-16,
                8.542154000E+04,   4.195177000E+00] )
             ),
    transport = gas_transport(
                     geom = "atom",
                     diam =     3.30,
                     well_depth =    71.40),
    note = "121086"
       )

species(name = "CH",
    atoms = " C:1  H:1 ",
    thermo = (
       NASA( [  300.00,  1000.00], [  3.200202000E+00,   2.072875000E-03, 
               -5.134431000E-06,   5.733890000E-09,  -1.955533000E-12,
                7.045259000E+04,   3.331587000E+00] ),
       NASA( [ 1000.00,  5000.00], [  2.196223000E+00,   2.340381000E-03, 
               -7.058201000E-07,   9.007582000E-11,  -3.855040000E-15,
                7.086723000E+04,   9.178373000E+00] )
             ),
    transport = gas_transport(
                     geom = "linear",
                     diam =     2.75,
                     well_depth =    80.00),
    note = "121286"
       )

species(name = "CH2",
    atoms = " C:1  H:2 ",
    thermo = (
       NASA( [  300.00,  1372.00], [  3.483874270E+00,   1.612958060E-03, 
                4.406560260E-07,  -3.710856990E-10,   6.273133950E-14,
                5.055726370E+04,   2.359547730E+00] ),
       NASA( [ 1372.00,  5000.00], [  2.792327630E+00,   3.128799460E-03, 
               -8.109435540E-07,   9.559567480E-11,  -4.286991430E-15,
                5.080859690E+04,   6.111171390E+00] )
             ),
    transport = gas_transport(
                     geom = "linear",
                     diam =     3.80,
                     well_depth =   144.00),
    note = "S CBS-Q07/01 "
       )

species(name = "HCH",
    atoms = " C:1  H:2 ",
    thermo = (
       NASA( [  300.00,  1382.00], [  3.594699720E+00,   1.781157440E-03, 
                5.215511910E-10,  -1.481646520E-10,   2.688691080E-14,
                4.644874550E+04,   2.198895590E+00] ),
       NASA( [ 1382.00,  5000.00], [  3.258692360E+00,   2.494990640E-03, 
               -5.708365660E-07,   5.916517580E-11,  -2.310001130E-15,
                4.657448980E+04,   4.031978550E+00] )
             ),
    transport = gas_transport(
                     geom = "linear",
                     diam =     3.80,
                     well_depth =   144.00),
    note = "T CBS-Q07/01 "
       )

species(name = "CH3",
    atoms = " C:1  H:3 ",
    thermo = (
       NASA( [  300.00,  1386.00], [  3.559145490E+00,   3.499529730E-03, 
                1.171879620E-06,  -1.425087030E-09,   3.146437980E-13,
                1.659644780E+04,   1.989708600E+00] ),
       NASA( [ 1386.00,  5000.00], [  3.469477390E+00,   5.218420120E-03, 
               -1.726462780E-06,   2.617388150E-10,  -1.492405430E-14,
                1.642294930E+04,   1.846840240E+00] )
             ),
    transport = gas_transport(
                     geom = "linear",
                     diam =     3.80,
                     well_depth =   144.00),
    note = "CBS-Q 07/01  "
       )

species(name = "CH4",
    atoms = " C:1  H:4 ",
    thermo = (
       NASA( [  300.00,  1000.00], [  7.787415000E-01,   1.747668000E-02, 
               -2.783409000E-05,   3.049708000E-08,  -1.223930700E-11,
               -9.825229000E+03,   1.372219500E+01] ),
       NASA( [ 1000.00,  5000.00], [  1.683478000E+00,   1.023723600E-02, 
               -3.875128000E-06,   6.785585000E-10,  -4.503423000E-14,
               -1.008078700E+04,   9.623395000E+00] )
             ),
    transport = gas_transport(
                     geom = "nonlinear",
                     diam =     3.75,
                     well_depth =   141.40,
                     polar =     2.60,
                     rot_relax =    13.00),
    note = "121286"
       )

species(name = "O",
    atoms = " O:1 ",
    thermo = (
       NASA( [  300.00,  1000.00], [  2.946428000E+00,  -1.638166500E-03, 
                2.421031000E-06,  -1.602843100E-09,   3.890696000E-13,
                2.914764000E+04,   2.963995000E+00] ),
       NASA( [ 1000.00,  5000.00], [  2.542059000E+00,  -2.755061000E-05, 
               -3.102803000E-09,   4.551067000E-12,  -4.368051000E-16,
                2.923080000E+04,   4.920308000E+00] )
             ),
    transport = gas_transport(
                     geom = "atom",
                     diam =     2.75,
                     well_depth =    80.00),
    note = "120186"
       )

species(name = "OH",
    atoms = " O:1  H:1 ",
    thermo = (
       NASA( [  300.00,  1000.00], [  3.637266000E+00,   1.850910000E-04, 
               -1.676164600E-06,   2.387202000E-09,  -8.431442000E-13,
                3.606781000E+03,   1.358860500E+00] ),
       NASA( [ 1000.00,  5000.00], [  2.882730000E+00,   1.013974300E-03, 
               -2.276877000E-07,   2.174683000E-11,  -5.126305000E-16,
                3.886888000E+03,   5.595712000E+00] )
             ),
    transport = gas_transport(
                     geom = "linear",
                     diam =     2.75,
                     well_depth =    80.00),
    note = "121286"
       )

species(name = "H2O",
    atoms = " H:2  O:1 ",
    thermo = (
       NASA( [  300.00,  1000.00], [  3.386842000E+00,   3.474982000E-03, 
               -6.354696000E-06,   6.968581000E-09,  -2.506588000E-12,
               -3.020811000E+04,   2.590232000E+00] ),
       NASA( [ 1000.00,  5000.00], [  2.672145000E+00,   3.056293000E-03, 
               -8.730260000E-07,   1.200996400E-10,  -6.391618000E-15,
               -2.989921000E+04,   6.862817000E+00] )
             ),
    transport = gas_transport(
                     geom = "nonlinear",
                     diam =     2.60,
                     well_depth =   572.40,
                     dipole =     1.84,
                     rot_relax =     4.00),
    note = "20387"
       )

species(name = "C2",
    atoms = " C:2 ",
    thermo = (
       NASA( [  300.00,  1000.00], [  6.996045000E+00,  -7.400601000E-03, 
                3.234703000E-06,   4.802535000E-09,  -3.295917000E-12,
                9.897487000E+04,  -1.386226800E+01] ),
       NASA( [ 1000.00,  5000.00], [  4.135978000E+00,   6.531618000E-05, 
                1.837099000E-07,  -5.295085000E-11,   4.712137000E-15,
                9.967272000E+04,   7.472923000E-01] )
             ),
    transport = gas_transport(
                     geom = "linear",
                     diam =     3.62,
                     well_depth =    97.53,
                     polar =     1.76,
                     rot_relax =     4.00),
    note = "121286"
       )

species(name = "C2H",
    atoms = " C:2  H:1 ",
    thermo = (
       NASA( [  300.00,  1362.00], [  3.573926840E+00,   3.989325310E-03, 
               -1.535897970E-06,  -3.491869500E-12,   8.599560230E-14,
                6.722561430E+04,   3.761008780E+00] ),
       NASA( [ 1362.00,  5000.00], [  4.875465910E+00,   1.878177030E-03, 
               -6.650877110E-07,   1.056798860E-10,  -6.231114010E-15,
                6.667019820E+04,  -3.576733290E+00] )
             ),
    transport = gas_transport(
                     geom = "linear",
                     diam =     4.10,
                     well_depth =   209.00,
                     rot_relax =     2.50),
    note = "CBS-Q 07/01  "
       )

species(name = "C2H2",
    atoms = " C:2  H:2 ",
    thermo = (
       NASA( [  300.00,  1405.00], [  3.044527500E+00,   1.180299620E-02, 
               -1.159979310E-05,   6.205867140E-09,  -1.294155560E-12,
                2.593076840E+04,   4.082199360E+00] ),
       NASA( [ 1405.00,  5000.00], [  5.255183280E+00,   4.112683160E-03, 
               -1.342106360E-06,   2.014468210E-10,  -1.140172380E-14,
                2.537684420E+04,  -6.958304260E+00] )
             ),
    transport = gas_transport(
                     geom = "linear",
                     diam =     4.10,
                     well_depth =   209.00,
                     rot_relax =     2.50),
    note = "HR11/99BLYP00"
       )

species(name = "C2H3",
    atoms = " C:2  H:3 ",
    thermo = (
       NASA( [  300.00,  1400.00], [  1.295698040E+00,   1.653809100E-02, 
               -1.247378900E-05,   5.223468060E-09,  -9.183061520E-13,
                3.500812750E+04,   1.632623040E+01] ),
       NASA( [ 1400.00,  5000.00], [  5.342822920E+00,   6.279098080E-03, 
               -2.116383430E-06,   3.251950450E-10,  -1.872665570E-14,
                3.365906260E+04,  -5.163399540E+00] )
             ),
    transport = gas_transport(
                     geom = "nonlinear",
                     diam =     4.10,
                     well_depth =   209.00,
                     rot_relax =     1.00),
    note = "CBS-Q 07/01  "
       )

species(name = "C2H4",
    atoms = " C:2  H:4 ",
    thermo = (
       NASA( [  300.00,  1000.00], [ -8.614880000E-01,   2.796162000E-02, 
               -3.388677000E-05,   2.785152000E-08,  -9.737879000E-12,
                5.573046000E+03,   2.421148000E+01] ),
       NASA( [ 1000.00,  5000.00], [  3.528418000E+00,   1.148518500E-02, 
               -4.418385000E-06,   7.844600000E-10,  -5.266848000E-14,
                4.428288000E+03,   2.230389000E+00] )
             ),
    transport = gas_transport(
                     geom = "nonlinear",
                     diam =     3.97,
                     well_depth =   280.80,
                     rot_relax =     1.50),
    note = "121286"
       )

species(name = "CO",
    atoms = " C:1  O:1 ",
    thermo = (
       NASA( [  300.00,  1000.00], [  3.262451000E+00,   1.511940900E-03, 
               -3.881755000E-06,   5.581944000E-09,  -2.474951000E-12,
               -1.431053900E+04,   4.848897000E+00] ),
       NASA( [ 1000.00,  5000.00], [  3.025078000E+00,   1.442688500E-03, 
               -5.630827000E-07,   1.018581300E-10,  -6.910951000E-15,
               -1.426835000E+04,   6.108217000E+00] )
             ),
    transport = gas_transport(
                     geom = "linear",
                     diam =     3.65,
                     well_depth =    98.10,
                     polar =     1.95,
                     rot_relax =     1.80),
    note = "121286"
       )

species(name = "N2",
    atoms = " N:2 ",
    thermo = (
       NASA( [  300.00,  1000.00], [  3.298677000E+00,   1.408240400E-03, 
               -3.963222000E-06,   5.641515000E-09,  -2.444854000E-12,
               -1.020899900E+03,   3.950372000E+00] ),
       NASA( [ 1000.00,  5000.00], [  2.926640000E+00,   1.487976800E-03, 
               -5.684760000E-07,   1.009703800E-10,  -6.753351000E-15,
               -9.227977000E+02,   5.980528000E+00] )
             ),
    transport = gas_transport(
                     geom = "linear",
                     diam =     3.68,
                     well_depth =    91.50,
                     polar =     1.60,
                     rot_relax =     3.80),
    note = "121286"
       )

species(name = "HCO",
    atoms = " H:1  C:1  O:1 ",
    thermo = (
       NASA( [  300.00,  1000.00], [  2.898329000E+00,   6.199146000E-03, 
               -9.623084000E-06,   1.089824900E-08,  -4.574885000E-12,
                4.159922000E+03,   8.983614000E+00] ),
       NASA( [ 1000.00,  5000.00], [  3.557271000E+00,   3.345572000E-03, 
               -1.335006000E-06,   2.470572000E-10,  -1.713850000E-14,
                3.916324000E+03,   5.552299000E+00] )
             ),
    transport = gas_transport(
                     geom = "nonlinear",
                     diam =     3.59,
                     well_depth =   498.00),
    note = "121286"
       )

species(name = "C2H5",
    atoms = " C:2  H:5 ",
    thermo = (
       NASA( [  300.00,  1382.00], [  1.764043330E+00,   1.646713830E-02, 
               -5.299174530E-06,  -3.602659000E-10,   3.733979470E-13,
                1.353533990E+04,   1.515821630E+01] ),
       NASA( [ 1382.00,  5000.00], [  5.703051330E+00,   1.056776530E-02, 
               -3.579529820E-06,   5.519514690E-10,  -3.186587050E-14,
                1.178900890E+04,  -7.248165400E+00] )
             ),
    transport = gas_transport(
                     geom = "nonlinear",
                     diam =     4.30,
                     well_depth =   252.30,
                     rot_relax =     1.50),
    note = "CBS-Q 07/01  "
       )

species(name = "C2H6",
    atoms = " C:2  H:6 ",
    thermo = (
       NASA( [  300.00,  1000.00], [  1.462538800E+00,   1.549466700E-02, 
                5.780507000E-06,  -1.257831900E-08,   4.586267000E-12,
               -1.123917600E+04,   1.443229500E+01] ),
       NASA( [ 1000.00,  4000.00], [  4.825938000E+00,   1.384042900E-02, 
               -4.557258000E-06,   6.724967000E-10,  -3.598161000E-14,
               -1.271779300E+04,  -5.239506000E+00] )
             ),
    transport = gas_transport(
                     geom = "nonlinear",
                     diam =     4.30,
                     well_depth =   252.30,
                     rot_relax =     1.50),
    note = "121686"
       )

species(name = "CH2O",
    atoms = " C:1  H:2  O:1 ",
    thermo = (
       NASA( [  300.00,  1000.00], [  1.652731100E+00,   1.263143900E-02, 
               -1.888168000E-05,   2.050031000E-08,  -8.413237000E-12,
               -1.486540400E+04,   1.378482000E+01] ),
       NASA( [ 1000.00,  5000.00], [  2.995606000E+00,   6.681321000E-03, 
               -2.628954000E-06,   4.737153000E-10,  -3.212517000E-14,
               -1.532036900E+04,   6.912572000E+00] )
             ),
    transport = gas_transport(
                     geom = "nonlinear",
                     diam =     3.59,
                     well_depth =   498.00,
                     rot_relax =     2.00),
    note = "121286"
       )

species(name = "CH3O",
    atoms = " C:1  H:3  O:1 ",
    thermo = (
       NASA( [  300.00,  1000.00], [  2.106204000E+00,   7.216595000E-03, 
                5.338472000E-06,  -7.377636000E-09,   2.075610000E-12,
                9.786011000E+02,   1.315217700E+01] ),
       NASA( [ 1000.00,  3000.00], [  3.770799000E+00,   7.871497000E-03, 
               -2.656384000E-06,   3.944431000E-10,  -2.112616000E-14,
                1.278325200E+02,   2.929575000E+00] )
             ),
    transport = gas_transport(
                     geom = "nonlinear",
                     diam =     3.69,
                     well_depth =   417.00,
                     dipole =     1.70,
                     rot_relax =     2.00),
    note = "121686"
       )

species(name = "CH2OH",
    atoms = " H:3  C:1  O:1 ",
    thermo = (
       NASA( [  250.00,  1000.00], [  2.862628000E+00,   1.001527300E-02, 
               -5.285435000E-07,  -5.138539000E-09,   2.246041000E-12,
               -3.349678000E+03,   1.039793800E+01] ),
       NASA( [ 1000.00,  4000.00], [  6.327520000E+00,   3.608270000E-03, 
               -3.201547000E-07,  -1.938750000E-10,   3.509704000E-14,
               -4.474509000E+03,  -8.329365000E+00] )
             ),
    transport = gas_transport(
                     geom = "nonlinear",
                     diam =     3.69,
                     well_depth =   417.00,
                     dipole =     1.70,
                     rot_relax =     2.00),
    note = "120186"
       )

species(name = "CH3OH",
    atoms = " C:1  H:4  O:1 ",
    thermo = (
       NASA( [  300.00,  1000.00], [  2.660115000E+00,   7.341508000E-03, 
                7.170050000E-06,  -8.793194000E-09,   2.390570000E-12,
               -2.535348000E+04,   1.123263100E+01] ),
       NASA( [ 1000.00,  5000.00], [  4.029061000E+00,   9.376593000E-03, 
               -3.050254000E-06,   4.358793000E-10,  -2.224723000E-14,
               -2.615791000E+04,   2.378195000E+00] )
             ),
    transport = gas_transport(
                     geom = "nonlinear",
                     diam =     3.63,
                     well_depth =   481.80,
                     rot_relax =     1.00),
    note = "121686"
       )

species(name = "O2",
    atoms = " O:2 ",
    thermo = (
       NASA( [  300.00,  1000.00], [  3.212936000E+00,   1.127486400E-03, 
               -5.756150000E-07,   1.313877300E-09,  -8.768554000E-13,
               -1.005249000E+03,   6.034737000E+00] ),
       NASA( [ 1000.00,  5000.00], [  3.697578000E+00,   6.135197000E-04, 
               -1.258842000E-07,   1.775281000E-11,  -1.136435400E-15,
               -1.233930100E+03,   3.189165000E+00] )
             ),
    transport = gas_transport(
                     geom = "linear",
                     diam =     3.46,
                     well_depth =   107.40,
                     polar =     1.60,
                     rot_relax =     3.80),
    note = "121386"
       )

species(name = "HO2",
    atoms = " H:1  O:2 ",
    thermo = (
       NASA( [  300.00,  1000.00], [  2.979963000E+00,   4.996697000E-03, 
               -3.790997000E-06,   2.354192000E-09,  -8.089024000E-13,
                1.762273000E+02,   9.222724000E+00] ),
       NASA( [ 1000.00,  5000.00], [  4.072191000E+00,   2.131296000E-03, 
               -5.308145000E-07,   6.112269000E-11,  -2.841164000E-15,
               -1.579727000E+02,   3.476029000E+00] )
             ),
    transport = gas_transport(
                     geom = "nonlinear",
                     diam =     3.46,
                     well_depth =   107.40,
                     rot_relax =     1.00),
    note = "20387"
       )

species(name = "H2O2",
    atoms = " H:2  O:2 ",
    thermo = (
       NASA( [  300.00,  1000.00], [  3.388753000E+00,   6.569226000E-03, 
               -1.485012500E-07,  -4.625805000E-09,   2.471514000E-12,
               -1.766314000E+04,   6.785363000E+00] ),
       NASA( [ 1000.00,  5000.00], [  4.573167000E+00,   4.336136000E-03, 
               -1.474688800E-06,   2.348903000E-10,  -1.431653600E-14,
               -1.800696000E+04,   5.011369000E-01] )
             ),
    transport = gas_transport(
                     geom = "nonlinear",
                     diam =     3.46,
                     well_depth =   107.40,
                     rot_relax =     3.80),
    note = "120186"
       )

species(name = "C3H2",
    atoms = " C:3  H:2 ",
    thermo = (
       NASA( [  300.00,  1419.00], [  4.528240280E+00,   1.593034260E-02, 
               -1.684349320E-05,   9.004633210E-09,  -1.826501570E-12,
                6.328762070E+04,   1.819000380E+00] ),
       NASA( [ 1419.00,  5000.00], [  7.891407890E+00,   3.942525020E-03, 
               -1.185032150E-06,   1.672561140E-10,  -9.036827390E-15,
                6.253741110E+04,  -1.476915730E+01] )
             ),
    transport = gas_transport(
                     geom = "nonlinear",
                     diam =     4.10,
                     well_depth =   209.00,
                     rot_relax =     1.00),
    note = "CBS-Q 07/01  "
       )

species(name = "H2CCCH",
    atoms = " C:3  H:3 ",
    thermo = (
       NASA( [  300.00,  1399.00], [  3.122335550E+00,   2.055853410E-02, 
               -1.840979320E-05,   8.951848570E-09,  -1.748815260E-12,
                3.962470150E+04,   7.825301950E+00] ),
       NASA( [ 1399.00,  5000.00], [  7.941779280E+00,   6.564312050E-03, 
               -2.202164330E-06,   3.372446000E-10,  -1.937315940E-14,
                3.818043470E+04,  -1.716087540E+01] )
             ),
    transport = gas_transport(
                     geom = "nonlinear",
                     diam =     4.76,
                     well_depth =   252.00,
                     rot_relax =     1.00),
    note = "CBS-Q 07/01  "
       )

species(name = "C3H4CY",
    atoms = " C:3  H:4 ",
    thermo = (
       NASA( [  300.00,  1401.00], [ -1.229395710E+00,   3.092781460E-02, 
               -2.383455780E-05,   9.666743890E-09,  -1.605120130E-12,
                3.376390000E+04,   2.788240250E+01] ),
       NASA( [ 1401.00,  5000.00], [  7.284738720E+00,   9.734657350E-03, 
               -3.312152660E-06,   5.123854850E-10,  -2.965263040E-14,
                3.093944310E+04,  -1.737735390E+01] )
             ),
    transport = gas_transport(
                     geom = "linear",
                     diam =     4.76,
                     well_depth =   252.00,
                     rot_relax =     1.00),
    note = "CBS-Q 07/01  "
       )

species(name = "C3H4",
    atoms = " C:3  H:4 ",
    thermo = (
       NASA( [  300.00,  1396.00], [  6.958126340E-01,   2.579134200E-02, 
               -1.870391890E-05,   7.401982020E-09,  -1.234041730E-12,
                2.088597810E+04,   1.823249320E+01] ),
       NASA( [ 1396.00,  5000.00], [  7.365272540E+00,   9.625653310E-03, 
               -3.264676710E-06,   5.038746440E-10,  -2.911027680E-14,
                1.859820670E+04,  -1.742883400E+01] )
             ),
    transport = gas_transport(
                     geom = "linear",
                     diam =     4.76,
                     well_depth =   252.00,
                     rot_relax =     1.00),
    note = "CBS-Q 07/01  "
       )

species(name = "C3H4P",
    atoms = " C:3  H:4 ",
    thermo = (
       NASA( [  300.00,  1392.00], [  1.605340580E+00,   2.233765500E-02, 
               -1.451055510E-05,   5.236655820E-09,  -8.239089980E-13,
                2.061456020E+04,   1.441026330E+01] ),
       NASA( [ 1392.00,  5000.00], [  7.114913970E+00,   9.826457360E-03, 
               -3.330773070E-06,   5.138174170E-10,  -2.967266670E-14,
                1.861784450E+04,  -1.538581700E+01] )
             ),
    transport = gas_transport(
                     geom = "linear",
                     diam =     4.76,
                     well_depth =   252.00,
                     rot_relax =     1.00),
    note = "CBS-Q 07/01  "
       )

species(name = "C2O",
    atoms = " C:2  O:1 ",
    thermo = (
       NASA( [  300.00,  1000.00], [  3.368850000E+00,   8.241803000E-03, 
               -8.765145000E-06,   5.569262000E-09,  -1.540008600E-12,
                3.317081000E+04,   6.713314000E+00] ),
       NASA( [ 1000.00,  5000.00], [  4.849809000E+00,   2.947585000E-03, 
               -1.090728600E-06,   1.792562000E-10,  -1.115758500E-14,
                3.282055000E+04,  -6.453225000E-01] )
             ),
    transport = gas_transport(
                     geom = "linear",
                     diam =     3.83,
                     well_depth =   232.40,
                     rot_relax =     1.00),
    note = "121286"
       )

species(name = "C3H5",
    atoms = " C:3  H:5 ",
    thermo = (
       NASA( [  300.00,  1390.00], [ -1.274713590E-01,   3.368059550E-02, 
               -2.682381740E-05,   1.153691460E-08,  -2.062155380E-12,
                1.931480120E+04,   2.299922510E+01] ),
       NASA( [ 1390.00,  5000.00], [  9.048561140E+00,   1.065324480E-02, 
               -3.693571860E-06,   5.786178680E-10,  -3.377917970E-14,
                1.622120280E+04,  -2.582827080E+01] )
             ),
    transport = gas_transport(
                     geom = "nonlinear",
                     diam =     4.98,
                     well_depth =   266.80,
                     rot_relax =     1.00),
    note = "CBS-Q 07/01  "
       )

species(name = "HCCO",
    atoms = " H:1  C:2  O:1 ",
    thermo = (
       NASA( [  300.00,  1000.00], [  5.047965000E+00,   4.453478000E-03, 
                2.268282000E-07,  -1.482094500E-09,   2.250741000E-13,
                1.965891000E+04,   4.818439000E-01] ),
       NASA( [ 1000.00,  4000.00], [  6.758073000E+00,   2.000400000E-03, 
               -2.027607000E-07,  -1.041131800E-10,   1.965164000E-14,
                1.901513000E+04,  -9.071262000E+00] )
             ),
    transport = gas_transport(
                     geom = "nonlinear",
                     diam =     2.50,
                     well_depth =   150.00,
                     rot_relax =     1.00),
    note = "32387"
       )

species(name = "C3H6",
    atoms = " C:3  H:6 ",
    thermo = (
       NASA( [  300.00,  1387.00], [  5.043781840E-01,   2.776421670E-02, 
               -1.379283120E-05,   2.932224960E-09,  -1.472577000E-13,
                1.464484400E+03,   2.143427790E+01] ),
       NASA( [ 1387.00,  5000.00], [  7.737859040E+00,   1.395968660E-02, 
               -4.755459330E-06,   7.361650840E-10,  -4.262023390E-14,
               -1.403613340E+03,  -1.858883370E+01] )
             ),
    transport = gas_transport(
                     geom = "nonlinear",
                     diam =     4.98,
                     well_depth =   266.80,
                     rot_relax =     1.00),
    note = "CBS-Q 07/01  "
       )

species(name = "CH2CO",
    atoms = " C:2  H:2  O:1 ",
    thermo = (
       NASA( [  300.00,  1000.00], [  2.974970000E+00,   1.211871200E-02, 
               -2.345045000E-06,  -6.466685000E-09,   3.905649000E-12,
               -7.632636000E+03,   8.673553000E+00] ),