!  KINETIC MECHANISM FOR 20 torr; completed mechanism as by 11/15/01
! Addition of soot formation November, December 2002, January 2003
! Updated February-November 2003
! Soot model: l1/07/03, collision efficiencies 
! of PAH/PAH* + BIN/BIN*
! reactions (only radical+radical and stable molecule+radical): 0.1 
! rate constants of reactions leading to formation of BIN1 and BIN2:
! scaled based phenyl+benzene/phenyl
! same scaling for BIN1-2/BIN1-2* + BIN1-2*
! BIN-BIN reactions are assumed to start with BIN5+BIN5. Coll. eff.
! of 1.0 are assumed for all reactions. Coll. eff. for BIN+BIN* and
! BIN*+BIN* are adjusted correspondingly
ELEMENTS H O C AR 
END
SPECIES 
H H2 C CH CH2 HCH CH3 CH4 O OH H2O C2 C2H C2H2 C2H3 C2H4 CO HCO C2H5	
C2H6 CH2O CH3O CH2OH CH3OH O2 HO2 H2O2 C3H2 H2CCCH C3H4CY C3H4 C3H4P C2O	
AR C3H5 HCCO C3H6 CH2CO HCCOH NC3H7 IC3H7 CH2CHO CH3CO C3H8 CH3CHO CO2	
CH3OCH2 CH3OCH3 C4H C4H2 HCCHCCH H2CCCCH C4H4 CH2CHCHCH CH2CHCCH2	
HCCCO C4H6-1 C4H612 C4H613 HCCCHO I-C4H7 CH2CHCO CHCHCHO C4H8 CH2CHCHO	
C2H5CO C2H5CHO CH3COCH3 C5H2(L) C5H3 C5H3(L) C5H4 C5H4(L) C5H5 C5H4H	
C5H5(L) C5H6 H2C4O C6H C6H2 C6H3 BENZYNE C6H4 C6H5 C6H5(L) C6H6 C6H6F	
C6H7 C6H813 C6H814 C5H5CH3 C5H4O C5H5O C5H4OH C6H5CH C7H7 C7H8 C6H5O	
C6H4OH C6H5OH A1C2HJ2 C8H6 C6H5CHCH C8H7J2 C8H8 C6H5CO C8H10	
C6H5CHO C6H3O2 C6H5CH2OH C7H8O C6H5OCH3 OC6H4O2 PC6H4O2 INDENEJ C6H5C3H2	
INDENE C6H3O3 A2T1 A2T2 C10H7J1 C10H7J2 C10H8 A2CH2-1 A2CH2-2 A2CH3-1	
A2CH3-2 C10H7O-1 C10H7O-2 C10H7OH-1 C10H7OH-2 A2R5T A2C2H-1J2 A2C2H-2J1	
A2C2H-2J3 A2R5J1 A2R5J3 A2R5J4 A2R5J5 A2C2H-1 A2C2H-2 A2R5 BIPHEN A2VINP C12H9 
HA2R5 BIPHENH A2C2H3-2 C12H10 A2R5H2 FLUORENE BENZYLBJ BENZYLB C6H5OC6H5 
A2R5YN1J2 A2R5YN3J4 A2R5YN4J3 A2R5YN4J5 A2R5YN5J4 
A2R5YNE1 A2R5YNE3 A2R5YNE4 A2R5YNE5  
A2R5R5 A3J1 A3J2 A3J4 A3J9 A3LJ1 A3LJ2 A3LJ9 A3 A3L A3CH2 A3CH2R A3CH3 
A3C2H-1JP A3C2H-2JS A3LC2H-1P A3LC2H-2S A3LC2H-2P A3C2H-1 A3C2H-2
A3LC2H-1 A3LC2H-2 A21C6H4 A22C6H4 FLTHNJ1 FLTHNJ3 FLTHNJ7  
A3R5J7 A3R5J10 A3LR5JS PYRENEJ1 PYRENEJ2 PYRENEJ4 A2C6H5-2 FLTHN A3R5 A3LR5
PYRENE C17H12 BENZNAPJP BENZNAP CPCDPYRJS PYC2H-1JP PYC2H-2JS PYC2H-4JS 
CPCDFLTJS BGHIF- CPCDPYR PYC2H-1 PYC2H-2 PYC2H-4 CPCDFLTH BGHIF 
A4J1 A4J4 A4J12 A4LJS CHRYSENJ1 CHRYSENJ4 CHRYSENJ5 A4 A4L CHRYSEN
BGHIFRJS COR- BGHIFR COR DCPCDFG BAPYRJS BEPYRENJS PERYLENJS BBFLUORJS 
BAPYR BEPYREN PERYLEN BBFLUOR BKFLUOR COR1- COR1 ANTHANJS BGHIPEJS1 ANTHAN
BGHIPER INPYR COR2- COR2 CPBPER COR3- COR3 COR4- COR4 HB 
BIN1 BIN1J BIN2 BIN2J BIN3 BIN3J BIN4 BIN4J BIN5 BIN5J BIN6 BIN6J BIN7 BIN7J
BIN8 BIN8J BIN9 BIN9J BIN10 BIN10J
BIN11 BIN11J BIN12 BIN12J BIN13 BIN13J BIN14 BIN14J BIN15 BIN15J BIN16 BIN16J 
BIN17 BIN17J BIN18 BIN18J BIN19 BIN19J BIN20 BIN20J
END
UNITS
CM3/MOL
END
!
! Rate coefficients in form k=A·Tn·exp(-E/RT)
! Units: moles, ccm, seconds, Kelvins and calories per mole)
!
REACTIONS
!
!
! H2,O2, H,OH and O reactions
!
AR=AR                    1.E0      0.0        0   ! Fake reaction for Dsmoke
H2+OH=H2O+H             2.14E8    1.51     3430.0 ! [Emdee et al. 1992]
H2+O2=OH+OH            1.70E13     0.0    47780.0 ! [Miller and Melius 1992]
H+O2=OH+O              1.91E14     0.0    16440.0 ! [Emdee et al. 1992]
H+O2+M=HO2+M           1.41E18   -0.80        0.0 ! [Baulch et al. 1994] for N2
  H2/1.25/  H2O/6.0/  CO2/1.90/             ! relative to N2, based on Baulch et al. 1972
2H+M=H2+M              1.00E18    -1.0        0.0 ! [Miller and Melius 1992]
2H+H2=2H2              9.20E16    -0.6        0.0 ! [Miller and Melius 1992]
2H+H2O=H2+H2O          6.00E19   -1.25        0.0 ! [Miller and Melius 1992]
2H+CO2=H2+CO2          5.49E20    -2.0        0.0 ! [Miller and Melius 1992]
H+OH+M=H2O+M           2.21E22    -2.0        0.0 ! [Baulch et al. 1992] for N2
  H2/1.25/  H2O/6.0/  CO2/1.90/             ! relative to N2, based on Baulch et al. 1972
H+O+M=OH+M             6.02E16    -0.6        0.0 ! [Miller and Melius 1992]
  H2O/5.0/
OH+H2O2=H2O+HO2        7.08E12     0.0     1430.0 ! [Emdee et al. 1992]
OH+OH=O+H2O            1.23E4     2.62    -1878.0 ! [Emdee et al. 1992]
O+HO2=OH+O2            1.74E13     0.0     -400.0 ! [Emdee et al. 1992]
O+H2=OH+H              5.13E4     2.67     6290.0 ! [Emdee et al. 1992]
O+O+M=O2+M             5.04E13     0.0    -1790.0 ! [Tsang and Hampson 1986] corrected for N2
  H2/1.25/  H2O/6.0/  CO2/1.90/             ! relative to N2, based on Baulch et al. 1972
O+OH+M=HO2+M           1.00E17     0.0        0.0 ! [Zhang and McKinnon 1995]
!
!
! HO2 peroxyl reactions
!
HO2+H=H2O+O            3.00E13     0.0     1070.0 ! [Baulch et al. 1992] 
HO2+H=H2+O2            6.61E13     0.0     2130.0 ! [Emdee et al. 1992]
HO2+H=OH+OH            1.40E14     0.0     1073.0 ! [Miller and Melius 1992]
HO2+OH=H2O+O2          7.50E12     0.0        0.0 ! [Miller and Melius 1992]
HO2+HO2=H2O2+O2        2.00E12     0.0        0.0 ! [Miller and Melius 1992]
!
!
! H2O2 reactions
!
H2O2+M=OH+OH+M         1.21E17     0.0    45510.0 ! [Baulch et al. 1992] for N2
  H2/1.25/  H2O/6.0/  CO2/1.90/             ! relative to N2, based on Baulch et al. 1972
H2O2+H=HO2+H2          4.79E13     0.0     7950.0 ! [Emdee et al. 1992]
H2O2+H=OH+H2O          1.00E13     0.0     3590.0 ! [Emdee et al. 1992]
H2O2+O=OH+HO2          9.55E6      2.0     3970.0 ! [Emdee et al. 1992]
H2O2+O=O2+H2O          9.55E6      2.      3970.0 ! [Emdee et al. 1992]
!
!
! HCO (aldehyde) reactions
!
HCO+O=CO2+H            3.00E13     0.0        0.0 ! [Miller and Melius 1992]
HCO+O2=CO2+OH          3.31E12    -0.4        0.0 ! [Baulch et al. 1992] 
HCO+HO2=CO2+OH+H       3.00E13     0.0        0.0 ! [Zhang and McKinnon 1995] 
HCO+CH3O=CH3OH+CO      9.04E13     0.0        0.0 ! [Tsang and Hampson 1986]
2HCO=CH2O+CO           4.52E13     0.0        0.0 ! [Baggott 1986]
HCO+O2=CO+HO2          3.30E13    -0.4        0.0 ! [Miller and Melius 1992]
HCO+OH=CO+H2O          3.02E13     0.0        0.0 ! [Emdee et al. 1992]
HCO+M=H+CO+M           2.50E14     0.0    16802.0 ! [Miller and Melius 1992]
HCO+H=CO+H2            9.04E13     0.0        0.0 ! [Baulch et al. 1992]
HCO+O=CO+OH            3.00E13     0.0        0.0 ! [Miller and Melius 1992]
2HCO=2CO+H2            3.01E12     0.0        0.0 ! [Zhang and McKinnon 1995]
!
!
! CO, CO2 reactions
!
CO+O+M=CO2+M           1.65E15     0.0     3000.0 ! [Tsang and Hampson 1986] corrected for N2
  H2/1.25/  H2O/6.0/  CO2/1.90/             ! relative to N2, based on Baulch et al. 1972
CO+OH=CO2+H            6.32E06     1.50    -497.0 ! [Baulch et al. 1992]
CO+O2=CO2+O            2.51E12     0.0    47690.0 ! [Emdee et al. 1992]
CO+HO2=CO2+OH          6.03E13     0.0    22950.0 ! [Emdee et al. 1992]
!
!
! CH methine & C reactions
!
CH+H2=CH3              3.19E25    -4.99    2710.0 ! [QRRK-HR, 20 torr]
CH+H2=HCH+H            2.39E15    -0.39    2890.0 ! [QRRK-HR, 20 torr]
CH+O=C+OH              1.52E13     0.0     4732.0 ! [Murrel and Rodriguez 1986]
CH+O=CO+H              5.70E13     0.0        0.0 ! [Miller and Melius 1992]
CH+O2=CO+OH            3.30E13     0.0        0.0 ! [Baulch et al. 1992]
CH+O2=HCO+O            3.30E13     0.0        0.0 ! [Miller and Melius 1992]
CH+OH=HCO+H            3.00E13     0.0        0.0 ! [Miller and Melius 1992]
CH+OH=C+H2O            4.00E07     2.0     3000.0 ! [Miller and Melius 1992]
CH+CO2=HCO+CO          3.40E12     0.0      690.0 ! [Miller and Melius 1992]
CH+H=C+H2              1.50E14     0.0        0.0 ! [Miller and Melius 1992]
CH+H2O=CH2O+H          1.17E15   -0.75        0.0 ! [Miller and Melius 1992]
CH+H2O=CH2OH           5.71E12     0.0     -755.0 ! [Zabarnick et al. 1986]
C+O2=CO+O              2.00E13     0.0        0.0 ! [Miller and Melius 1992]
C+OH=CO+H              5.00E13     0.0        0.0 ! [Miller and Melius 1992]
!
!
! CH2O formaldehyde reactions
!
CH2O+OH=HCO+H2O        3.43E09    1.18     -447.0 ! [Miller and Melius 1992] 
CH2O+H=HCO+H2          2.19E08     1.8     3000.0 ! [Miller and Melius 1992] 
!
!
CH2O+M=HCO+H+M         3.31E16     0.0    81000.0 ! [Miller and Melius 1992]
CH2O+O=HCO+OH          1.80E13     0.0     3080.0 ! [Miller and Melius 1992] 
CH2O+O2=HO2+HCO        1.23E06     3.0    52060.0 ! [Hidaka et al. 1993]
CH2O+HO2=HCO+H2O2      4.40E06     2.0    12000.0 ! [Hidaka et al. 1993]
!
!
! Singlet Methylene reactions
!
CH2+CH4=2CH3           4.00E13     0.0        0.0 ! [Miller and Melius 1992]
CH2+H2=CH3+H           7.00E13     0.0        0.0 ! [Miller and Melius 1992]
CH2+H2O=HCH+H2O        3.00E13     0.0        0.0 ! [Miller and Melius 1992]
CH2+H=HCH+H            2.00E14     0.0        0.0 ! [Miller and Melius 1992]
CH2+O=H+H+CO           3.00E13     0.0        0.0 ! [Miller and Melius 1992]
CH2+O=H2+CO            7.83E12     0.0        0.0 ! [Zhang and McKinnon 1995] 
CH2+O2=CO2+2H          7.83E12     0.0        0.0 ! [Zhang and McKinnon 1995] 
CH2+O2=O+CH2O          7.83E12     0.0        0.0 ! [Zhang and McKinnon 1995] 
CH2+O2=H2+CO2          7.83E12     0.0        0.0 ! [Zhang and McKinnon 1995] 
CH2+O2=H+CO+OH         7.83E12     0.0        0.0 ! [Zhang and McKinnon 1995] 
CH2+OH=CH2O+H          3.01E13     0.0        0.0 ! [Miller and Melius 1992]
CH2+CO2=CH2O+CO        3.00E12     0.0        0.0 ! [Miller and Melius 1992]
CH2+HO2=CH2O+OH        3.01E13     0.0        0.0 ! [Zhang and McKinnon 1995]
CH2+H2O2=CH3O+OH       3.01E13     0.0        0.0 ! [Zhang and McKinnon 1995]
CH2+HCO=CO+CH3         1.81E13     0.0        0.0 ! [Zhang and McKinnon 1995]
CH2+CH2O=HCO+CH3       1.20E12     0.0        0.0 ! [Zhang and McKinnon 1995]
CH2+O=CH+OH            3.00E14     0.0    11923.0 ! [Frank and Just 1984]
!
!
! Triplet Methylene reactions
!
HCH+O=CO+2H            5.00E13      0.0       0.0 ! [Miller and Melius 1992]
HCH+O=CO+H2            3.00E13      0.0       0.0 ! [Miller and Melius 1992]
HCH+O2=CO2+2H          1.60E12      0.0    1000.0 ! [Miller and Melius 1992]
HCH+O2=CH2O+O          5.00E13      0.0    9000.0 ! [Miller and Melius 1992]
HCH+O2=CO2+H2          6.90E11      0.0     500.0 ! [Miller and Melius 1992]
HCH+O2=CO+H2O          1.90E10      0.0   -1000.0 ! [Miller and Melius 1992]
HCH+O2=CO+OH+H         8.60E10      0.0    -500.0 ! [Miller and Melius 1992]
HCH+O2=HCO+OH          4.30E10      0.0    -500.0 ! [Miller and Melius 1992]
HCH+OH=CH+H2O          1.13E07      2.0    3000.0 ! [Miller and Melius 1992]
HCH+OH=CH2O+H          2.50E13      0.0       0.0 ! [Miller and Melius 1992]
HCH+CO2=CH2O+CO        1.10E11      0.0    1000.0 ! [Miller and Melius 1992]
CH2+M=HCH+M            1.00E13      0.0       0.0 ! [Miller and Melius 1992]
  H/0.0/   H2O/0.0/    C2H2/0.0/
HCH+HCO=CH3+CO         1.81E13      0.0       0.0 ! [Zhang and McKinnon 1995]
HCH+CH3O=CH3+CH2O      1.81E13      0.0       0.0 ! [Zhang and McKinnon 1995]
!
!
! CH3 methyl reactions
!
CH3+M=HCH+H+M          2.72E36   -5.309 117084.0 ! [Su and Teitelbaum '94, l.p. limit]
CH3+H+M=CH4+M          6.19E23   -1.80       0.0 ! [Baulch et al. 1992, for argon]
CH3+H=HCH+H2           6.03E13    0.0    15103.0 ! [Baulch et al. 1992]
CH3+O=CH2O+H           7.17E13    0.0        0.0 ! [Lim/Michael '93, Marcy et al. '01]
CH3+O=HCO+H2           1.26E13    0.0        0.0 ! [Lim/Michael '93, Marcy et al. '01]
CH3+O=CH3O             1.78E14   -2.14     603.0 ! [Dean and Westmoreland 1987]
CH3+O2=CH3O+O          7.26E11    0.39   27363.0 ! [Dean and Westmoreland 1987]
CH3+OH=CH3OH           1.24E43   -9.49   10471.0 ! [Dean and Westmoreland 1987]
CH3+OH=CH2OH+H         1.09E11     0.4    -708.0 ! [Zhang and McKinnon 1995]
CH3+OH=CH3O+H          8.93E11   -0.02   13073.0 ! [Dean and Westmoreland 1987]
CH3+OH=HCH+H2O         7.50E06     2.0    5000.0 ! [Zhang and McKinnon 1995]
CH3+OH=CH2O+H2         3.98E10   -0.02    8765.0 ! [Dean and Westmoreland 1987]
CH3+HO2=CH3O+OH        1.81E13     0.0       0.0 ! [Baulch et al. 1992]
CH3+HCO=CH4+CO         2.65E13     0.0       0.0 ! [Mulenko 1987]
CH3+CH2OH=CH4+CH2O     2.41E12     0.0       0.0 ! [Tsang 1987]
CH3+CH3O=CH4+CH2O      2.41E13     0.0       0.0 ! [Tsang et al. 1986]
CH3+CH2O=CH4+HCO       7.77E-8     6.10   1970.0 ! [Baulch et al. 1994]
CH3+CH3=C2H5+H         8.92E11  -0.005   11850.0 ! [QRRK, HR, 20 torr]
CH3+CH3=C2H4+H2        1.00E16     0.0   32030.0 ! [Warnatz 1984]
CH3+CH3=C2H6           9.18E49 -11.851   11590.0 ! [QRRK, HR, 20 torr]
!
!
! CH2OH hydroxymethyl Rxns [CH2OH CH3CHOH->hydroxyalkyl radicals]
!
CH2OH+M=CH2O+H+M        1.67E24    -2.5   34190.0 ! [Emdee et al. 1992]
CH2OH+O=CH2O+OH         1.00E13     0.0       0.0 ! [Miller and Melius 1992]
CH2OH+O2=CH2O+HO2       2.41E14     0.0    5000.0 ! [Emdee et al. 1992]
CH2OH+OH=CH2O+H2O       1.00E13     0.0       0.0 ! [Miller and Melius 1992]
CH2OH+H=CH2O+H2         2.00E13     0.0       0.0 ! [Miller and Melius 1992]
CH2OH+HO2=CH2O+H2O2     1.20E13     0.0       0.0 ! [Zhang and McKinnon 1995]
CH2OH+HCO=CH3OH+CO      1.20E14     0.0       0.0 ! [Zhang and McKinnon 1995]
CH2OH+CH2O=CH3OH+HCO    5.54E03    2.81    5682.0 ! [Zhang and McKinnon 1995]
2CH2OH=CH3OH+CH2O       4.82E12     0.0       0.0 ! [Zhang and McKinnon 1995]
CH2OH+HCO=2CH2O         1.81E14     0.0       0.0 ! [Tsang 1987]
!
!
! CH3O methoxy radical reactions[CH3O C2H5O-> alkoxy radicals]
!
CH3O+M=CH2O+H+M         5.42E13     0.0   13490.0 ! [Baulch et al. 1994]
CH3O+H=CH2O+H2          2.00E13     0.0       0.0 ! [Miller and Melius 1992]
CH3O+OH=CH2O+H2O        1.00E13     0.0       0.0 ! [Miller and Melius 1992]
CH3O+O=CH2O+OH          1.00E13     0.0       0.0 ! [Miller and Melius 1992]
CH3O+O2=CH2O+HO2        6.30E10     0.0    2600.0 ! [Miller and Melius 1992]
CH3O+HO2=CH2O+H2O2      3.01E11     0.0       0.0 ! [Zhang and McKinnon 1995]
CH3O+CO=CH3+CO2         1.57E13     0.0   11797.0 ! [Zhang and McKinnon 1995]
!
!
! CH3OH methanol reactions
!
CH3OH+M=CH3+OH+M        3.50E16     0.0   66444.0 ! [Zhang and McKinnon 1995]
CH3OH+M=CH2OH+H+M       1.75E15     0.0   66444.0 ! [Zhang and McKinnon 1995]
CH3OH+M=CH2+H2O+M       7.00E15     0.0   66444.0 ! [Zhang and McKinnon 1995]
CH3OH+CH3=CH2OH+CH4     3.19E01    3.17    7172.0 ! [Zhang and McKinnon 1995]
CH3OH+CH3=CH3O+CH4      1.45E01    3.10    6935.0 ! [Zhang and McKinnon 1995]
CH3OH+HO2=H2O2+CH2OH    9.64E10     0.0   12579.0 ! [Zhang 1987]
CH3OH+O=OH+CH2OH        3.80E05     2.5    3080.0 ! [Zhang and McKinnon 1995]
CH3OH+O=OH+CH3O         1.00E13     0.0    4684.0 ! [Warnatz 1984]
CH3OH+O2=CH2OH+HO2      2.05E13     0.0   44717.0 ! [Zhang and McKinnon 1995]
CH3OH+OH=H2O+CH2OH      1.00E13     0.0    1697.0 ! [Zhang and McKinnon 1995]
CH3OH+OH=H2O+CH3O       1.00E13     0.0    1697.0 ! [Zhang and McKinnon 1995]
CH3OH+CH2OH=CH3OH+CH3O  7.83E09     0.0   12062.0 ! [Tsang 1987]
CH3OH+H=CH2OH+H2        3.98E13     0.0    6095.0 ! [Zhang and McKinnon 1995]
CH3OH+H=CH3O+H2         3.98E13     0.0    6095.0 ! [Zhang and McKinnon 1995]
CH3OH+HCH=CH2OH+CH3     1.58E12     0.0    5736.0 ! [Zhang and McKinnon 1995]
!
!
! CH4 Methane reactions
!
CH4+O2=CH3+HO2          7.94E13     0.0   56000.0 ! [Miller and Melius 1992]
CH4+H=CH3+H2            1.48E14     0.0   13585.0 ! [Knyazev et al. 1996a]
CH4+OH=CH3+H2O          1.57E07    1.83    2780.0 ! [Baulch et al. 1992]
CH4+O=CH3+OH            6.92E08    1.56    8490.0 ! [Baulch et al. 1992]
CH4+HO2=CH3+H2O2        1.81E11     0.0   18580.0 ! [Emdee et al. 1992]
!
!
! C2O & C2  reactions
!
C2O+H=CH+CO             5.00E13     0.0       0.0 ! [Miller and Melius 1992]
C2O+O=CO+CO             5.00E13     0.0       0.0 ! [Miller and Melius 1992]
C2O+OH=CO+CO+H          2.00E13     0.0       0.0 ! [Miller and Melius 1992]
C2O+O2=2CO+O            2.00E13     0.0       0.0 ! [Miller and Melius 1992]
C2+OH=C2O+H             5.00E13     0.0       0.0 ! [Miller and Melius 1992]
C2+O2=2CO               5.00E13     0.0       0.0 ! [Miller and Melius 1992]
!
!
! C2H ethynyl reactions
!
C2H+M=C2+H+M            4.68E16     0.0  124000.0 ! [Colket 1986]
C2H+O=CO+CH             5.00E13     0.0       0.0 ! [Miller and Melius 1992]
C2H+O2=HCO+CO           2.41E12     0.0       0.0 ! [Zhang and McKinnon 1995]
C2H+O2=H+CO+CO          3.52E13     0.0       0.0 ! [Miller and Melius 1992]
C2H+OH=CH2+CO           1.81E13     0.0       0.0 ! [Tsang et al. 1986]
C2H+OH=C2+H2O           4.00E07     2.0    8000.0 ! [Miller and Melius 1992]
C+HCH=C2H+H             5.00E13     0.0       0.0 ! [Miller and Melius 1992]
CH+HCH=C2H+2H           5.49E22   -2.41   11520.0 ! [Westmoreland 1986]
C2+H2=C2H+H             4.00E05     2.4    1000.0 ! [Miller and Melius 1992]
!
!
! HCCO Ketyl reactions
!
HCCO+H=CH2+CO           1.00E14     0.0       0.0 ! [Miller and Melius 1992]
HCCO+O=2CO+H            1.00E14     0.0       0.0 ! [Miller and Melius 1992]
HCCO+H=HCCOH            1.85E39  -8.521    6430.0 ! [QRRK, HR, 20 torr]
HCCO+OH=C2O+H2O         3.00E13     0.0       0.0 ! [Miller and Melius 1992]
HCCO+O2=2CO+OH          1.46E12     0.0     2500. ! [Emdee et al. 1992]
HO2+C2H=HCCO+OH         1.81E13     0.0       0.0 ! [Tsang et al. 1986]
C2H+O2=HCCO+O           5.00E13     0.0    1500.0 ! [Baulch et al. 1992]
C2H+OH=HCCO+H           2.00E13     0.0       0.0 ! [Miller and Melius 1992]
!
!
! CH2CO reactions
!
CH2CO+M=HCH+CO+M        3.60E15     0.0   59235.0 ! [Miller and Melius 1992]
  H2/2.5/ H2O/16.0/ CO/1.9/ CO2/3.8/ CH4/16.0/ CH3OH/5.0/
CH2CO+O=HCO+HCO         2.00E13     0.0    2293.0 ! [Zhang and McKinnon 1995]
CH2CO+O=CH2+CO2         1.75E12     0.0    1350.0 ! [Miller and Melius 1992]
CH2CO+H=HCCO+H2         5.00E13     0.0    8000.0 ! [Miller and Melius 1992]
CH2CO+O=HCCO+OH         1.00E13     0.0    8000.0 ! [Miller and Melius 1992]
CH2O+CH=CH2CO+H         9.46E13     0.0    -515.0 ! [Miller and Melius 1992]
CH2+CO=CH2CO            6.00E08     0.0       0.0 ! [QRRK, HR, 20 torr]
CH2CO+OH=HCCO+H2O       7.50E12     0.0    2000.0 ! [Miller and Melius 1992]
CH2CO+OH=CH2O+HCO       2.80E13     0.0       0.0 ! [Zhang and McKinnon 1995]
CH2CO+OH=CH3O+CO        2.80E13     0.0       0.0 ! [Baulch et al. 1992]
HCCOH+H=CH2CO+H         1.00E13     0.0       0.0 ! [Miller and Melius 1992]
!
!
! C2H2 acetylene reactions
!
C2H2+M=C2H+H+M          4.20E16     0.0  107000.0 ! [Miller and Melius 1992]
C2H2+O2=C2H+HO2         1.20E13     0.0   74475.0 ! [Zhang and McKinnon 1995]
C2H2+H=C2H+H2           6.03E13     0.0   27820.0 ! [Baulch et al. 1992]
C2H2+H=CH+CH2           1.02E16     0.0  125076.0 ! [Lee et al. 1993]
C2H2+H2=C2H4            1.41E41    -9.06  51130.0 ! [QRRK-HR, 20 torr]
C2H2+OH=C2H+H2O         3.37E07     2.0   14000.0 ! [Miller and Melius 1992] 
C2H2+OH=HCCOH+H         5.04E5      2.3   13500.0 ! [Miller and Melius 1992] 
C2H2+OH=CH2CO+H         2.18E-4     4.5   -1000.0 ! [Miller and Melius 1992] 
C2H2+OH=CH3+CO          4.83E-4     4.0   -2000.0 ! [Miller and Melius 1992] 
CH3OH+C2H=CH3O+C2H2     1.21E12     0.0       0.0 ! [Tsang 1987]
CH3OH+C2H=CH2OH+C2H2    6.03E12     0.0       0.0 ! [Tsang 1987]
C2H+CH4=C2H2+CH3        1.81E12     0.0     497.0 ! [Tsang et al. 1986]
HCCO+CH=C2H2+CO         5.00E13     0.0       0.0 ! [Miller and Melius 1992] 
HCCO+HCCO=C2H2+2CO      1.00E13     0.0       0.0 ! [Miller and Melius 1992] 
HO2+C2H2=CH2CO+OH       6.03E09     0.0    7949.0 ! [Tsang et al. 1986]
HCO+C2H=C2H2+CO         6.03E13     0.0       0.0 ! [Tsang et al. 1986]
C+CH3=C2H2+H            5.00E13     0.0       0.0 ! [Miller and Melius 1992] 
CH2+C2H2=HCH+C2H2       4.00E13     0.0       0.0 ! [Miller and Melius 1992]
CH2+CH2=C2H2+H2         3.01E13     0.0       0.0 ! [Zhang and McKinnon 1995]
CH3O+C2H=CH2O+C2H2      2.41E13     0.0       0.0 ! [Zhang and McKinnon 1995]
2HCH=C2H2+H2            4.02E14   -0.47     480.0 ! [Westmoreland 1986]
CH+HCH=C2H2+H           2.50E12   -3.68    4190.0 ! [Westmoreland 1986]
C2H+CH2OH=C2H2+CH2O     3.61E13     0.0       0.0 ! [Tsang 1987]
!
C2H+C2H=C2H2+C2         1.81E12     0.0       0.0 ! [Tsang et al. 1986]
C2H+CH2=CH+C2H2         1.81E13     0.0       0.0 ! [Tsang et al. 1986]
C2H2+O=C2H+OH           3.16E15    -0.6   15000.0 ! [Miller and Melius 1992]
C2H2+O=HCH+CO           1.40E06    2.09    1562.0 ! [Emdee et al. 1992]
C2H2+O=HCCO+H           5.80E6     2.09    1562.0 ! [Emdee et al. 1992]
HCH+C2H=CH+C2H2         1.81E13     0.0       0.0 ! [Zhang and McKinnon 1995]
!
!
! C2H3 vinyl radical or ethenyl reactions
!
C2H3=C2H2+H             2.74E22   -4.061  37040.0 ! [Knyazev et al. 1996b, 20 torr]
C2H3+H=C2H2+H2          1.21E13     0.0       0.0 ! [Baulch et al. 1992]
C2H3+O=CH2CO+H          3.00E13     0.0       0.0 ! [Miller and Melius 1992]
C2H3+O=C2H2+OH          3.00E13     0.0       0.0 ! [Baulch et al. 1992]
C2H3+O=CO+CH3           3.00E13     0.0       0.0 ! [Baulch et al. 1992]
CH+HCH=C2H3             3.09E14   -1.98     620.0 ! [Westmoreland 1986]
CH+CH3=C2H3+H           3.00E13     0.0       0.0 ! [Miller and Melius 1992]
CH2+CH2=C2H3+H          2.00E13     0.0       0.0 ! [Frank and Just 1984]
2HCH=C2H3+H             7.12E21    -3.9    2460.0 ! [Westmoreland 1986]
CH2OH+C2H2=C2H3+CH2O    7.30E11     0.0    9004.0 ! [Tsang 1987]
C2H3+O=HCO+CH2          3.00E13     0.0       0.0 ! [Baulch et al. 1992] 
C2H3+O2=CH2O+HCO        4.58E16   -1.39    1015.0 ! [Mebel et al. 1996]
C2H3+O2=C2H2+HO2        1.34E06    1.61    -383.0 ! [Mebel et al. 1996]
C2H3+OH=C2H2+H2O        2.00E13     0.0       0.0 ! [Miller and Melius 1992] 
C2H3+C2H=2C2H2          3.00E13     0.0       0.0 ! [Miller and Melius 1992] 
C2H3+CH=HCH+C2H2        5.00E13     0.0       0.0 ! [Miller and Melius 1992] 
C2H3+CH3=C2H2+CH4       1.99E13     0.0       0.0 ! [Fahr et al. 1999]
C2H3+CH2=CH3+C2H2       1.81E13     0.0       0.0 ! [Tsang et al. 1986]
HCH+C2H3=CH3+C2H2       1.81E13     0.0       0.0 ! [Zhang and McKinnon 1995]
!
!
! C2H4 ethylene reactions
!
C2H4+H=C2H3+H2          5.07E07    1.93   12951.0 ! [Knyazev et al. 1996a]
C2H4+H=C2H5             8.42E08    1.49     990.0 ! [Tsang et al. 1986]
2HCH=C2H4               1.11E20   -3.43    2070.0 ! [Westmoreland 1986]
HCH+CH3=C2H4+H          4.20E13     0.0       0.0 ! [Westmoreland 1986]
CH3O+C2H3=CH2O+C2H4     2.41E13     0.0       0.0 ! [Zhang and McKinnon 1995]
CH2CO+CH2=C2H4+CO       1.60E14     0.0       0.0 ! [Miller and Melius 1992]
C2H3+H2O2=C2H4+HO2      1.21E10     0.0    -596.0 ! [Tsang et al. 1986] 
C2H3+CH2O=C2H4+HCO      5.43E03    2.81    5862.0 ! [Tsang et al. 1986]
C2H3+CH2OH=C2H4+CH2O    3.01E13     0.0       0.0 ! [Tsang 1987]
CH3+CH2=C2H4+H          4.94E13   -.076      94.0 ! [Westmoreland 1986]
CH+CH4=C2H4+H           6.00E13     0.0       0.0 ! [Miller and Melius 1992]
C2H4+O=CH3+HCO          1.60E09     1.2     746.0 ! [Miller and Melius 1992]
C2H4+OH=C2H3+H2O        2.02E13     0.0    5955.0 ! [Miller and Melius 1992]
C2H4+OH=CH3+CH2O        1.05E12     0.0    -916.0 ! [Zhang and McKinnon 1995]
C2H4+O2=C2H3+HO2        4.22E13     0.0   57594.0 ! [Zhang and McKinnon 1995]
C2H4+CH3=C2H3+CH4       4.16E12     0.0   11128.0 ! [Baulch et al. 1992]
C2H4+C2H2=2C2H3         2.41E13     0.0   68360.0 ! [Tsang et al. 1986]
C2H3+HCO=C2H4+CO        9.04E13     0.0       0.0 ! [Tsang et al. 1986]
!
! 
! C2H5 ethyl reactions
!
C2H5+O=C2H4+OH          5.00E13     0.0       0.0 ! [Zhang and McKinnon 1995]
C2H5+O=CH2O+CH3         1.61E13     0.0       0.0 ! [Tsang et al. 1986]
HO2+C2H5=C2H4+H2O2      3.01E11     0.0       0.0 ! [Tsang et al. 1986]
HCH+CH3=C2H5            2.53E20   -3.49    2030.0 ! [Westmoreland 1986]
CH3+C2H5=C2H4+CH4       1.95E13    -0.5       0.0 ! [Tsang et al. 1986]
CH3+CH2=C2H5            1.11E19   -3.20    1780.0 ! [Westmoreland 1986]
C2H+C2H5=C2H2+C2H4      1.81E12     0.0       0.0 ! [Tsang et al. 1986]
C2H5+H=C2H4+H2          1.81E12     0.0       0.0 ! [Tsang and Hampson 1986]
C2H5+O2=C2H4+HO2        1.92E07     1.02  -2035.0 ! [Miller et al. 2000]
2C2H4=C2H5+C2H3         4.82E14     0.0   71539.0 ! [Tsang et al. 1986]
C2H5+OH=C2H4+H2O        2.41E13     0.0       0.0 ! [Tsang and Hampson 1986]
C2H5+HO2=CH3+CH2O+OH    2.40E13     0.0       0.0 ! [Zhang and McKinnon 1995]
CH2+C2H5=C2H4+CH3       9.03E12     0.0       0.0 ! [Zhang and McKinnon 1995]
HCH+C2H5=CH3+C2H4       1.81E13     0.0       0.0 ! [Zhang and McKinnon 1995]
!
!
! C2H6 ethane reactions
!
C2H6+CH3=C2H5+CH4       5.50E-1     4.0    8300.0 ! [Miller and Melius 1992]
C2H6+H=C2H5+H2          5.40E02     3.5    5210.0 ! [Miller and Melius 1992]
C2H6+O=C2H5+OH          3.00E07     2.0    5115.0 ! [Miller and Melius 1992]
C2H6+OH=C2H5+H2O        8.70E09    1.05    1810.0 ! [Miller and Melius 1992]
C2H6+O2=C2H5+HO2        6.03E13     0.0   51870.0 ! [Baulch et al. 1992]
C2H6+HO2=C2H5+H2O2      2.95E11     0.0   14940.0 ! [Tsang and Hampson 1986]
HCO+C2H5=C2H6+CO        1.21E14     0.0       0.0 ! [Tsang and Hampson 1986]
C2H4+C2H5=C2H3+C2H6     6.32E02    3.13   18010.0 ! [Tsang and Hampson 1986]
CH2+C2H6=CH3+C2H5       1.20E14     0.0       0.0 ! [Miller and Melius 1992]
C2H6+HCO=C2H5+CH2O      4.70E04     2.7   18233.0 ! [Zhang and McKinnon 1995]
2C2H5=C2H6+C2H4         1.39E12     0.0       0.0 ! [Zhang and McKinnon 1995]
C2H3+C2H5=C2H6+C2H2     4.82E11     0.0       0.0 ! [Zhang and McKinnon 1995]
C2H2+C2H5=C2H6+C2H      2.71E11     0.0   23446.0 ! [Zhang and McKinnon 1995]
!
!
! Dimethylether (CH3OCH3): Formation and Consumption
!
CH3+CH3O=CH3OCH3        7.69E58   -14.14  17840.0 ! [Dupont et al. 2003]
CH3OCH3+H=CH3OCH2+H2    1.90E13     0.0    5166.0 ! [Faubel et al. '79]
CH3OCH3+OH=CH3OCH2+H2O  6.27E12     0.0     739.0 ! [Tully/Droege '87]
CH3OCH3+O=CH3OCH2+OH    5.00E13     0.0    4571.0 ! [Herron '88]
CH3OCH3+CH3=CH3OCH2+CH4 3.55E12     0.0   11800.0 ! [Batt et al. '82]
CH3OCH2=CH3+CH2O        1.60E13     0.0   25440.0 ! [Sehested et al. 1997]
!
!
! Formation and Consumption of the Acetaldehyde Radical (CH2CHO)
!
CH+CH2O=CH2CHO           9.64E13    0.0    -517.0 ! [Baulch '92]
C2H4+O=CH2CHO+H          1.21E06    2.08      0.0 ! [Baulch '92]
C3H6+O=CH2CHO+CH3        1.08E06    2.15   -795.0 ! [Tsang '91; Knyazev '92]
C4H8+O=CH2CHO+C2H5       5.14E06    1.95   -596.0 ! [Ko et al.'91/Koda et al.'91]
CH2CHO=CH2CO+H           1.58E13    0.0   34970.0 ! [Colket et al. '75]
CH2CHO=CH3CO             1.00E13    0.0   47100.0 ! [Colket et al. '75]
!
!
! CH3CO Formation and Consumption
!
CH3CO=CH3+CO             8.74E42   -8.62  22424.0 ! [Tsang/Hampson '86]
CH3CO+CH3=CH3COCH3       4.04E15   -0.80      0.0 ! [Tsang/Hampson '86]
!
CH3CO+CH3=CH2CO+CH4      6.06E14   -0.80      0.0 ! [Hassinen et al. '90]
CH3CO+O=CH3+CO2          9.64E12    0.0       0.0 ! [Tsang/Hampson '86]
CH3CO+OH=CH2CO+H2O       1.21E13    0.0       0.0 ! [Tsang/Hampson '86]
CH3CO+H=CH3+HCO          3.30E13    0.0       0.0 ! [Bartels et al. '90]
!
!
! Acetaldehyde (CH3CHO) and acetone (CH3COCH3)
!
IC3H7+HO2=CH3CHO+CH3+OH  2.41E13    0.0       0.0 ! [Tsang '88]
IC3H7+O=CH3CHO+CH3       4.82E13    0.0       0.0 ! [Tsang '88]
IC3H7+O=CH3COCH3+H       4.82E13    0.0       0.0 ! [Tsang '88]
C2H4+HO2=CH3CHO+OH       6.03E09    0.0    7949.0 ! [Tsang/Hampson '86]
C2H5+O=CH3CHO+H          6.62E13    0.0       0.0 ! [Baulch '92]
C2H5+O2=CH3CHO+OH        4.55E13   -1.03   9665.0 ! [Bozzelli/Dean '90, 0.01 atm]
C2H3+OH=CH3CHO           3.01E13    0.0       0.0 ! [Tsang/Hampson '86]
CH3CHO=CH3+HCO           7.00E15    0.0   81674.0 ! [Baulch '92]
CH3CHO+H=CH3CO+H2        4.00E13    0.0    4207.0 ! [Warnatz '84]
CH3CHO+OH=CH3CO+H2O      1.00E13    0.0       0.0 ! [Warnatz '84]
CH3CHO+O=CH3CO+OH        5.00E12    0.0    1792.0 ! [Warnatz '84]
CH3CHO+CH3=CH3CO+CH4     1.99E-6    5.64   2464.0 ! [Baulch '92]
CH3CHO+CH3=CH3COCH3+H    1.66E10    0.0   12398.0 ! [Liu/Laidler '68]
!
!
! C3H2 propynylidene reactions
!
C3H2+O=C2H+HCO           6.80E13     0.0      0.0 ! [Warnatz et al. 1982] 
C3H2+O=C2H2+CO           1.00E14     0.0      0.0 ! [Miller and Melius 1992]     
C3H2+OH=C2H2+HCO         5.00E13     0.0      0.0 ! [Miller and Melius 1992]
C3H2+OH=CHCHCHO          3.01E13     0.0      0.0 ! [Tsang/Hampson '86]
!
!
! H2CCCH  reactions
!
H2CCCH=C3H2+H            5.20E12     0.0  78447.0 ! [Scherer et al. 2000]
H2CCCH+H=C3H2+H2         5.00E13     0.0   1000.0 ! [Miller and Melius 1992]
H2CCCH+OH=C3H2+H2O       2.00E13     0.0      0.0 ! [Pauwels et al. 1995]
H2CCCH+O=C3H2+OH         3.20E12     0.0      0.0 ! [Warnatz et al. 1982]
CH3+C2H=H2CCCH+H         2.41E13     0.0      0.0 ! [Tsang et al. 1986]
C2H+CH2OH=H2CCCH+OH      1.21E13     0.0      0.0 ! [Tsang 1987]
C2H+C2H5=CH3+H2CCCH      1.81E13     0.0      0.0 ! [Tsang et al. 1986]
C2H2+HCCO=H2CCCH+CO      1.10E11     0.0   3000.0 ! [Miller and Melius 1992]     
H2CCCH+O2=CH2CO+HCO      3.00E10     0.0   2868.0 ! [Miller and Melius 1992]     
CH2+C2H2=H2CCCH+H        8.48E25    -3.736 3774.0 ! [QRRK-HR, 20 torr]     
HCH+C2H2=H2CCCH+H        1.20E13     0.0   6600.0 ! [Boehland et al. 1986]
H2CCCH+O=C2H+CH2O        7.17E13     0.0      0.0 ! [p.w., as CH3+O]
!
!
! 2-Propynal and its radical: HCCCHO and HCCCO
!
H2CCCH+O=HCCCHO+H        6.03E13     0.0      0.0 ! [Tsang '91 for C3H5+O]
C3H2+O=HCCCHO            6.62E12     0.0   3060.0 ! [Aleksandrov et al. '80 for C3H4+O]
CHCHCHO+H=HCCCHO+H2      1.21E13     0.0      0.0 ! [Baulch et al. '92 for C2H3]
CHCHCHO+OH=HCCCHO+H2O    2.00E13     0.0      0.0 ! [Miller and Melius '92 for C2H3]
C2H+CH3CO=CH3+HCCCO      1.81E13     0.0      0.0 ! [Tsang/Hampson '86 for C2H3]
HCCCHO=C2H2+CO           8.51E14     0.0  70940.0 ! [Saito et al. '90]
HCCCHO+O=HCCCO+OH        5.68E12     0.0   1542.0 ! [Singleton et al. '77 for C2H5CHO]