#
# Generated from file dmc_1i_dmm_24_mech.txt
# by ck2cti on Fri Nov 12 09:54:40 2010
#
# Transport data from file dmc_2c_tran.txt.

units(length = "cm", time = "s", quantity = "mol", act_energy = "cal/mol")


ideal_gas(name = "gas",
      elements = " H  C  O  N  Ar ",
      species = """ h  h2  o  o2  oh  h2o  n2  co  hco  co2 
                   ch3  ch4  ho2  h2o2  ch2o  ch3o  c2h6  c2h4  c2h5  ch2 
                   ch  c2h  c2h2  c2h3  ch3oh  ch2oh  ch2co  hcco  c2h5oh  pc2h4oh 
                   sc2h4oh  ch3co  ch2cho  ch3cho  ch3coch3  ch3coch2  c2h5cho  c2h5co  c2h5o  ch3o2 
                   c2h5o2  ch3o2h  c2h5o2h  c2h3o1-2  ch3co2  c2h4o1-2  c2h4o2h  o2c2h4oh  ch3co3  ch3co3h 
                   c2h3co  c2h3cho  ch3coch2o2  ch3coch2o2h  ch3coch2o  hco3h  hco3  ocho  o2c2h4o2h  ch2(s) 
                   ch3och3  ch3och2  ch3och2o2  ch2och2o2h  ch3och2o2h  ch3och2o  o2ch2och2o2h  ho2ch2ocho  och2ocho  hoch2oco 
                   hoch2o  hocho  ch3och2och3  ch3ochoch3  ch3och2och2  ch3ocho  ch3oco  ch2ocho  ch3och2oh  hoch2o2h 
                   och2o2h  hoch2o2  amm1oo  amm1o  ammmo  ammmoo  ammmooh  amm1ooh  amm1oohmj  am1oohm*o 
                   ammmooh1j  ammcy1om  am1oohmoo  ammooh1oo  chooco  ar  coc*ooc  coc*oocj  coc*ooj  coc*ooh 
                   cjoc*ooh  hoco """,
      reactions = "all",
      transport = "Mix",
      initial_state = state(temperature = 300.0,
                        pressure = OneAtm)    )



#-------------------------------------------------------------------------------
#  Species data 
#-------------------------------------------------------------------------------

species(name = "h",
    atoms = " H:1 ",
    thermo = (
       NASA( [  300.00,  1000.00], [  2.501044220E+00,   0.000000000E+00, 
                0.000000000E+00,   0.000000000E+00,   0.000000000E+00,
                2.547474660E+04,  -4.653413170E-01] ),
       NASA( [ 1000.00,  5000.00], [  2.501044220E+00,   0.000000000E+00, 
                0.000000000E+00,   0.000000000E+00,   0.000000000E+00,
                2.547474660E+04,  -4.653413170E-01] )
             ),
    transport = gas_transport(
                     geom = "atom",
                     diam = 2.05,
                     well_depth = 145),
    note = "8/12/99 therm"
       )

species(name = "h2",
    atoms = " H:2 ",
    thermo = (
       NASA( [  300.00,  1000.00], [  3.298124000E+00,   8.249442000E-04, 
               -8.143015000E-07,  -9.475434000E-11,   4.134872000E-13,
               -1.012521000E+03,  -3.294094000E+00] ),
       NASA( [ 1000.00,  5000.00], [  2.991423000E+00,   7.000644000E-04, 
               -5.633829000E-08,  -9.231578000E-12,   1.582752000E-15,
               -8.350340000E+02,  -1.355110000E+00] )
             ),
    transport = gas_transport(
                     geom = "linear",
                     diam = 2.92,
                     well_depth = 38,
                     polar = 0.79,
                     rot_relax = 280),
    note = "121286"
       )

species(name = "o",
    atoms = " O:1 ",
    thermo = (
       NASA( [  300.00,  1000.00], [  2.946429000E+00,  -1.638166000E-03, 
                2.421032000E-06,  -1.602843000E-09,   3.890696000E-13,
                2.914764000E+04,   2.963995000E+00] ),
       NASA( [ 1000.00,  5000.00], [  2.542060000E+00,  -2.755062000E-05, 
               -3.102803000E-09,   4.551067000E-12,  -4.368052000E-16,
                2.923080000E+04,   4.920308000E+00] )
             ),
    transport = gas_transport(
                     geom = "atom",
                     diam = 2.75,
                     well_depth = 80),
    note = "120186"
       )

species(name = "o2",
    atoms = " O:2 ",
    thermo = (
       NASA( [  300.00,  1000.00], [  3.212936000E+00,   1.127486000E-03, 
               -5.756150000E-07,   1.313877000E-09,  -8.768554000E-13,
               -1.005249000E+03,   6.034738000E+00] ),
       NASA( [ 1000.00,  5000.00], [  3.697578000E+00,   6.135197000E-04, 
               -1.258842000E-07,   1.775281000E-11,  -1.136435000E-15,
               -1.233930000E+03,   3.189166000E+00] )
             ),
    transport = gas_transport(
                     geom = "linear",
                     diam = 3.458,
                     well_depth = 107.4,
                     polar = 1.6,
                     rot_relax = 3.8),
    note = "121386"
       )

species(name = "oh",
    atoms = " H:1  O:1 ",
    thermo = (
       NASA( [  300.00,  1357.00], [  3.435862190E+00,   2.022358040E-04, 
               -1.135464120E-07,   2.424451490E-10,  -7.436510310E-14,
                3.743212520E+03,   2.450141270E+00] ),
       NASA( [ 1357.00,  5000.00], [  2.625997540E+00,   1.319924060E-03, 
               -3.597246700E-07,   4.256308000E-11,  -1.820480160E-15,
                4.120853740E+03,   7.106673070E+00] )
             ),
    transport = gas_transport(
                     geom = "linear",
                     diam = 2.75,
                     well_depth = 80),
    note = "8/12/99 therm"
       )

species(name = "h2o",
    atoms = " H:2  O:1 ",
    thermo = (
       NASA( [  300.00,  1000.00], [  3.386842000E+00,   3.474982000E-03, 
               -6.354696000E-06,   6.968581000E-09,  -2.506588000E-12,
               -3.020811000E+04,   2.590233000E+00] ),
       NASA( [ 1000.00,  5000.00], [  2.672146000E+00,   3.056293000E-03, 
               -8.730260000E-07,   1.200996000E-10,  -6.391618000E-15,
               -2.989921000E+04,   6.862817000E+00] )
             ),
    transport = gas_transport(
                     geom = "nonlinear",
                     diam = 2.605,
                     well_depth = 572.4,
                     dipole = 1.844,
                     rot_relax = 4),
    note = "20387"
       )

species(name = "n2",
    atoms = " N:2 ",
    thermo = (
       NASA( [  300.00,  1000.00], [  3.298677000E+00,   1.408240000E-03, 
               -3.963222000E-06,   5.641515000E-09,  -2.444855000E-12,
               -1.020900000E+03,   3.950372000E+00] ),
       NASA( [ 1000.00,  5000.00], [  2.926640000E+00,   1.487977000E-03, 
               -5.684761000E-07,   1.009704000E-10,  -6.753351000E-15,
               -9.227977000E+02,   5.980528000E+00] )
             ),
    transport = gas_transport(
                     geom = "linear",
                     diam = 3.621,
                     well_depth = 97.53,
                     polar = 1.76,
                     rot_relax = 4),
    note = "121286"
       )

species(name = "co",
    atoms = " C:1  O:1 ",
    thermo = (
       NASA( [  300.00,  1000.00], [  3.262452000E+00,   1.511941000E-03, 
               -3.881755000E-06,   5.581944000E-09,  -2.474951000E-12,
               -1.431054000E+04,   4.848897000E+00] ),
       NASA( [ 1000.00,  5000.00], [  3.025078000E+00,   1.442689000E-03, 
               -5.630828000E-07,   1.018581000E-10,  -6.910952000E-15,
               -1.426835000E+04,   6.108218000E+00] )
             ),
    transport = gas_transport(
                     geom = "linear",
                     diam = 3.65,
                     well_depth = 98.1,
                     polar = 1.95,
                     rot_relax = 1.8),
    note = "121286"
       )

species(name = "hco",
    atoms = " H:1  C:1  O:1 ",
    thermo = (
       NASA( [  300.00,  1000.00], [  2.898330000E+00,   6.199147000E-03, 
               -9.623084000E-06,   1.089825000E-08,  -4.574885000E-12,
                4.159922000E+03,   8.983614000E+00] ),
       NASA( [ 1000.00,  5000.00], [  3.557271000E+00,   3.345573000E-03, 
               -1.335006000E-06,   2.470573000E-10,  -1.713851000E-14,
                3.916324000E+03,   5.552299000E+00] )
             ),
    transport = gas_transport(
                     geom = "nonlinear",
                     diam = 3.59,
                     well_depth = 498),
    note = "121286"
       )

species(name = "co2",
    atoms = " C:1  O:2 ",
    thermo = (
       NASA( [  300.00,  1000.00], [  2.275725000E+00,   9.922072000E-03, 
               -1.040911000E-05,   6.866687000E-09,  -2.117280000E-12,
               -4.837314000E+04,   1.018849000E+01] ),
       NASA( [ 1000.00,  5000.00], [  4.453623000E+00,   3.140169000E-03, 
               -1.278411000E-06,   2.393997000E-10,  -1.669033000E-14,
               -4.896696000E+04,  -9.553959000E-01] )
             ),
    transport = gas_transport(
                     geom = "linear",
                     diam = 3.763,
                     well_depth = 244,
                     polar = 2.65,
                     rot_relax = 2.1),
    note = "121286"
       )

species(name = "ch3",
    atoms = " C:1  H:3 ",
    thermo = (
       NASA( [  300.00,  1000.00], [  2.430443000E+00,   1.112410000E-02, 
               -1.680220000E-05,   1.621829000E-08,  -5.864953000E-12,
                1.642378000E+04,   6.789794000E+00] ),
       NASA( [ 1000.00,  5000.00], [  2.844052000E+00,   6.137974000E-03, 
               -2.230345000E-06,   3.785161000E-10,  -2.452159000E-14,
                1.643781000E+04,   5.452697000E+00] )
             ),
    transport = gas_transport(
                     geom = "linear",
                     diam = 3.8,
                     well_depth = 144),
    note = "121286"
       )

species(name = "ch4",
    atoms = " C:1  H:4 ",
    thermo = (
       NASA( [  300.00,  1000.00], [  7.787415000E-01,   1.747668000E-02, 
               -2.783409000E-05,   3.049708000E-08,  -1.223931000E-11,
               -9.825229000E+03,   1.372219000E+01] ),
       NASA( [ 1000.00,  5000.00], [  1.683479000E+00,   1.023724000E-02, 
               -3.875129000E-06,   6.785585000E-10,  -4.503423000E-14,
               -1.008079000E+04,   9.623395000E+00] )
             ),
    transport = gas_transport(
                     geom = "nonlinear",
                     diam = 3.746,
                     well_depth = 141.4,
                     polar = 2.6,
                     rot_relax = 13),
    note = "121286"
       )

species(name = "ho2",
    atoms = " H:1  O:2 ",
    thermo = (
       NASA( [  300.00,  1390.00], [  3.183106560E+00,   3.667679500E-03, 
               -9.323851220E-07,  -3.258529190E-10,   1.511399120E-13,
                8.091810130E+02,   8.393710990E+00] ),
       NASA( [ 1390.00,  5000.00], [  4.105474230E+00,   2.384528350E-03, 
               -8.063479890E-07,   1.241917230E-10,  -7.164001080E-15,
                3.981276890E+02,   3.125158360E+00] )
             ),
    transport = gas_transport(
                     geom = "nonlinear",
                     diam = 3.458,
                     well_depth = 107.4,
                     rot_relax = 1),
    note = "8/12/99 therm"
       )

species(name = "h2o2",
    atoms = " H:2  O:2 ",
    thermo = (
       NASA( [  300.00,  1000.00], [  3.388754000E+00,   6.569226000E-03, 
               -1.485013000E-07,  -4.625806000E-09,   2.471515000E-12,
               -1.766315000E+04,   6.785363000E+00] ),
       NASA( [ 1000.00,  5000.00], [  4.573167000E+00,   4.336136000E-03, 
               -1.474689000E-06,   2.348904000E-10,  -1.431654000E-14,
               -1.800696000E+04,   5.011370000E-01] )
             ),
    transport = gas_transport(
                     geom = "nonlinear",
                     diam = 3.458,
                     well_depth = 107.4,
                     rot_relax = 3.8),
    note = "120186"
       )

species(name = "ch2o",
    atoms = " C:1  H:2  O:1 ",
    thermo = (
       NASA( [  300.00,  1000.00], [  1.652731000E+00,   1.263144000E-02, 
               -1.888168000E-05,   2.050031000E-08,  -8.413237000E-12,
               -1.486540000E+04,   1.378482000E+01] ),
       NASA( [ 1000.00,  5000.00], [  2.995606000E+00,   6.681321000E-03, 
               -2.628955000E-06,   4.737153000E-10,  -3.212517000E-14,
               -1.532037000E+04,   6.912572000E+00] )
             ),
    transport = gas_transport(
                     geom = "nonlinear",
                     diam = 3.59,
                     well_depth = 498,
                     rot_relax = 2),
    note = "121286"
       )

species(name = "ch3o",
    atoms = " C:1  H:3  O:1 ",
    thermo = (
       NASA( [  300.00,  1000.00], [  2.106204000E+00,   7.216595000E-03, 
                5.338472000E-06,  -7.377636000E-09,   2.075611000E-12,
                9.786011000E+02,   1.315218000E+01] ),
       NASA( [ 1000.00,  3000.00], [  3.770800000E+00,   7.871497000E-03, 
               -2.656384000E-06,   3.944431000E-10,  -2.112616000E-14,
                1.278325000E+02,   2.929575000E+00] )
             ),
    transport = gas_transport(
                     geom = "nonlinear",
                     diam = 3.69,
                     well_depth = 417,
                     dipole = 1.7,
                     rot_relax = 2),
    note = "121686"
       )

species(name = "c2h6",
    atoms = " C:2  H:6 ",
    thermo = (
       NASA( [  300.00,  1000.00], [  1.462539000E+00,   1.549467000E-02, 
                5.780507000E-06,  -1.257832000E-08,   4.586267000E-12,
               -1.123918000E+04,   1.443229000E+01] ),
       NASA( [ 1000.00,  4000.00], [  4.825938000E+00,   1.384043000E-02, 
               -4.557259000E-06,   6.724967000E-10,  -3.598161000E-14,
               -1.271779000E+04,  -5.239507000E+00] )
             ),
    transport = gas_transport(
                     geom = "nonlinear",
                     diam = 4.35,
                     well_depth = 247.5,
                     rot_relax = 1.5),
    note = "121686"
       )

species(name = "c2h4",
    atoms = " C:2  H:4 ",
    thermo = (
       NASA( [  300.00,  1000.00], [ -8.614880000E-01,   2.796163000E-02, 
               -3.388677000E-05,   2.785152000E-08,  -9.737879000E-12,
                5.573046000E+03,   2.421149000E+01] ),
       NASA( [ 1000.00,  5000.00], [  3.528419000E+00,   1.148518000E-02, 
               -4.418385000E-06,   7.844601000E-10,  -5.266848000E-14,
                4.428289000E+03,   2.230389000E+00] )
             ),
    transport = gas_transport(
                     geom = "nonlinear",
                     diam = 3.496,
                     well_depth = 238.4,
                     rot_relax = 1.5),
    note = "121286"
       )

species(name = "c2h5",
    atoms = " C:2  H:5 ",
    thermo = (
       NASA( [  300.00,  1000.00], [  2.690702000E+00,   8.719133000E-03, 
                4.419839000E-06,   9.338703000E-10,  -3.927773000E-12,
                1.287040000E+04,   1.213820000E+01] ),
       NASA( [ 1000.00,  5000.00], [  7.190480000E+00,   6.484077000E-03, 
               -6.428065000E-07,  -2.347879000E-10,   3.880877000E-14,
                1.067455000E+04,  -1.478089000E+01] )
             ),
    transport = gas_transport(
                     geom = "nonlinear",
                     diam = 4.35,
                     well_depth = 247.5,
                     rot_relax = 1.5),
    note = "12387"
       )

species(name = "ch2",
    atoms = " C:1  H:2 ",
    thermo = (
       NASA( [  250.00,  1000.00], [  3.762237000E+00,   1.159819000E-03, 
                2.489585000E-07,   8.800836000E-10,  -7.332435000E-13,
                4.536791000E+04,   1.712578000E+00] ),
       NASA( [ 1000.00,  4000.00], [  3.636408000E+00,   1.933057000E-03, 
               -1.687016000E-07,  -1.009899000E-10,   1.808256000E-14,
                4.534134000E+04,   2.156561000E+00] )
             ),
    transport = gas_transport(
                     geom = "linear",
                     diam = 3.8,
                     well_depth = 144),
    note = "120186"
       )

species(name = "ch",
    atoms = " C:1  H:1 ",
    thermo = (
       NASA( [  300.00,  1000.00], [  3.200202000E+00,   2.072876000E-03, 
               -5.134431000E-06,   5.733890000E-09,  -1.955533000E-12,
                7.045259000E+04,   3.331588000E+00] ),
       NASA( [ 1000.00,  5000.00], [  2.196223000E+00,   2.340381000E-03, 
               -7.058201000E-07,   9.007582000E-11,  -3.855040000E-15,
                7.086723000E+04,   9.178373000E+00] )
             ),
    transport = gas_transport(
                     geom = "linear",
                     diam = 2.75,
                     well_depth = 80),
    note = "121286"
       )

species(name = "c2h",
    atoms = " C:2  H:1 ",
    thermo = (
       NASA( [  300.00,  1000.00], [  2.737704000E+00,   8.048446000E-03, 
               -9.244310000E-06,   6.525259000E-09,  -1.939580000E-12,
                6.683813000E+04,   7.300220000E+00] ),
       NASA( [ 1000.00,  4000.00], [  3.986367000E+00,   3.143123000E-03, 
               -1.267243000E-06,   2.924363000E-10,  -2.716320000E-14,
                6.655884000E+04,   1.191063000E+00] )
             ),
    transport = gas_transport(
                     geom = "linear",
                     diam = 3.721,
                     well_depth = 265.3,
                     rot_relax = 2.5),
    note = "81193"
       )

species(name = "c2h2",
    atoms = " C:2  H:2 ",
    thermo = (
       NASA( [  300.00,  1000.00], [  2.013562000E+00,   1.519045000E-02, 
               -1.616319000E-05,   9.078992000E-09,  -1.912746000E-12,
                2.612444000E+04,   8.805378000E+00] ),
       NASA( [ 1000.00,  5000.00], [  4.436770000E+00,   5.376039000E-03, 
               -1.912817000E-06,   3.286379000E-10,  -2.156710000E-14,
                2.566766000E+04,  -2.800338000E+00] )
             ),
    transport = gas_transport(
                     geom = "linear",
                     diam = 3.721,
                     well_depth = 265.3,
                     rot_relax = 2.5),
    note = "121386"
       )

species(name = "c2h3",
    atoms = " C:2  H:3 ",
    thermo = (
       NASA( [  300.00,  1000.00], [  2.459276000E+00,   7.371476000E-03, 
                2.109873000E-06,  -1.321642000E-09,  -1.184784000E-12,
                3.335225000E+04,   1.155620000E+01] ),
       NASA( [ 1000.00,  5000.00], [  5.933468000E+00,   4.017746000E-03, 
               -3.966740000E-07,  -1.441267000E-10,   2.378644000E-14,
                3.185435000E+04,  -8.530313000E+00] )
             ),
    transport = gas_transport(
                     geom = "nonlinear",
                     diam = 3.721,
                     well_depth = 265.3,
                     rot_relax = 1),
    note = "12787"
       )

species(name = "ch3oh",
    atoms = " C:1  H:4  O:1 ",
    thermo = (
       NASA( [  300.00,  1000.00], [  2.660115000E+00,   7.341508000E-03, 
                7.170051000E-06,  -8.793194000E-09,   2.390570000E-12,
               -2.535348000E+04,   1.123263000E+01] ),
       NASA( [ 1000.00,  5000.00], [  4.029061000E+00,   9.376593000E-03, 
               -3.050254000E-06,   4.358793000E-10,  -2.224723000E-14,
               -2.615791000E+04,   2.378196000E+00] )
             ),
    transport = gas_transport(
                     geom = "nonlinear",
                     diam = 3.626,
                     well_depth = 481.8,
                     dipole = 1.7,
                     rot_relax = 1),
    note = "121686"
       )

species(name = "ch2oh",
    atoms = " H:3  C:1  O:1 ",
    thermo = (
       NASA( [  250.00,  1000.00], [  2.862628000E+00,   1.001527000E-02, 
               -5.285436000E-07,  -5.138540000E-09,   2.246041000E-12,
               -3.349679000E+03,   1.039794000E+01] ),
       NASA( [ 1000.00,  4000.00], [  6.327520000E+00,   3.608271000E-03, 
               -3.201547000E-07,  -1.938750000E-10,   3.509705000E-14,
               -4.474509000E+03,  -8.329366000E+00] )
             ),
    transport = gas_transport(
                     geom = "nonlinear",
                     diam = 3.69,
                     well_depth = 417,
                     dipole = 1.7,
                     rot_relax = 2),
    note = "120186"
       )

species(name = "ch2co",
    atoms = " C:2  H:2  O:1 ",
    thermo = (
       NASA( [  300.00,  1000.00], [  2.974971000E+00,   1.211871000E-02, 
               -2.345046000E-06,  -6.466685000E-09,   3.905649000E-12,
               -7.632637000E+03,   8.673553000E+00] ),
       NASA( [ 1000.00,  5000.00], [  6.038817000E+00,   5.804840000E-03, 
               -1.920954000E-06,   2.794485000E-10,  -1.458868000E-14,
               -8.583402000E+03,  -7.657581000E+00] )
             ),
    transport = gas_transport(
                     geom = "nonlinear",
                     diam = 3.97,
                     well_depth = 436,
                     rot_relax = 2),
    note = "121686"
       )

species(name = "hcco",
    atoms = " H:1  C:2  O:1 ",
    thermo = (
       NASA( [  300.00,  1000.00], [  5.047965000E+00,   4.453478000E-03, 
                2.268283000E-07,  -1.482095000E-09,   2.250742000E-13,
                1.965892000E+04,   4.818439000E-01] ),
       NASA( [ 1000.00,  4000.00], [  6.758073000E+00,   2.000400000E-03, 
               -2.027607000E-07,  -1.041132000E-10,   1.965165000E-14,
                1.901513000E+04,  -9.071262000E+00] )
             ),
    transport = gas_transport(
                     geom = "nonlinear",
                     diam = 2.5,
                     well_depth = 150,
                     rot_relax = 1),
    note = "32387"
       )

species(name = "c2h5oh",
    atoms = " C:2  H:6  O:1 ",
    thermo = (
       NASA( [  300.00,  1391.00], [  4.231490450E-01,   2.928581670E-02, 
               -1.738450990E-05,   5.336398920E-09,  -6.749172520E-13,
               -2.956830540E+04,   2.335387630E+01] ),
       NASA( [ 1391.00,  5000.00], [  7.952648410E+00,   1.315741440E-02, 
               -4.436933590E-06,   6.822011600E-10,  -3.930963350E-14,
               -3.236029580E+04,  -1.765379720E+01] )
             ),
    transport = gas_transport(
                     geom = "nonlinear",
                     diam = 4.41,
                     well_depth = 470.6,
                     rot_relax = 1.5),
    note = "3/12/95 therm"
       )

species(name = "pc2h4oh",
    atoms = " C:2  H:5  O:1 ",
    thermo = (
       NASA( [  300.00,  1391.00], [  1.177147110E+00,   2.481156850E-02, 
               -1.502995030E-05,   4.790067850E-09,  -6.409942110E-13,
               -4.953690430E+03,   2.200815860E+01] ),
       NASA( [ 1391.00,  5000.00], [  7.522419390E+00,   1.104927150E-02, 
               -3.725764650E-06,   5.728273970E-10,  -3.300617590E-14,
               -7.293335900E+03,  -1.249587320E+01] )
             ),
    transport = gas_transport(
                     geom = "nonlinear",
                     diam = 4.41,
                     well_depth = 470.6,
                     rot_relax = 1.5),
    note = "3/12/95 therm"
       )

species(name = "sc2h4oh",
    atoms = " C:2  H:5  O:1 ",
    thermo = (
       NASA( [  300.00,  1392.00], [  1.914964770E+00,   2.456931450E-02, 
               -1.630753990E-05,   6.122823610E-09,  -1.007843630E-12,
               -8.621615510E+03,   1.659873090E+01] ),
       NASA( [ 1392.00,  5000.00], [  7.835245170E+00,   1.088081980E-02, 
               -3.686941270E-06,   5.686013610E-10,  -3.282889510E-14,
               -1.075343110E+04,  -1.534957020E+01] )
             ),
    transport = gas_transport(
                     geom = "nonlinear",
                     diam = 4.41,
                     well_depth = 470.6,
                     rot_relax = 1.5),
    note = "4/ 3/ 0 therm"
       )

species(name = "ch3co",
    atoms = " C:2  H:3  O:1 ",
    thermo = (
       NASA( [  300.00,  1000.00], [  3.125278000E+00,   9.778220000E-03, 
                4.521448000E-06,  -9.009462000E-09,   3.193718000E-12,
               -4.108508000E+03,   1.122885000E+01] ),
       NASA( [ 1000.00,  5000.00], [  5.612279000E+00,   8.449886000E-03, 
               -2.854147000E-06,   4.238376000E-10,  -2.268404000E-14,
               -5.187863000E+03,  -3.274949000E+00] )
             ),
    transport = gas_transport(
                     geom = "nonlinear",
                     diam = 3.97,
                     well_depth = 436,
                     dipole = 2.5,
                     rot_relax = 2),
    note = "120186"
       )

species(name = "ch2cho",
    atoms = " O:1  H:3  C:2 ",
    thermo = (
       NASA( [  300.00,  1000.00], [  3.409062000E+00,   1.073857000E-02, 
                1.891492000E-06,  -7.158583000E-09,   2.867385000E-12,
                1.521477000E+03,   9.558290000E+00] ),
       NASA( [ 1000.00,  5000.00], [  5.975670000E+00,   8.130591000E-03, 
               -2.743624000E-06,   4.070304000E-10,  -2.176017000E-14,
                4.903218000E+02,  -5.045251000E+00] )
             ),
    transport = gas_transport(
                     geom = "nonlinear",
                     diam = 3.97,
                     well_depth = 436,
                     rot_relax = 2),
    note = "110393"
       )

species(name = "ch3cho",
    atoms = " C:2  O:1  H:4 ",
    thermo = (
       NASA( [  300.00,  1000.00], [  2.505695000E+00,   1.336991000E-02, 
                4.671953000E-06,  -1.128140000E-08,   4.263566000E-12,
               -2.124589000E+04,   1.335089000E+01] ),
       NASA( [ 1000.00,  5000.00], [  5.868650000E+00,   1.079424000E-02, 
               -3.645530000E-06,   5.412912000E-10,  -2.896844000E-14,
               -2.264569000E+04,  -6.012946000E+00] )
             ),
    transport = gas_transport(
                     geom = "nonlinear",
                     diam = 3.97,
                     well_depth = 436,
                     dipole = 2.5,
                     rot_relax = 2),
    note = "120186"
       )

species(name = "ch3coch3",
    atoms = " C:3  H:6  O:1 ",
    thermo = (
       NASA( [  300.00,  1374.00], [  1.307671630E+00,   2.920217420E-02, 
               -1.190456170E-05,   6.521500870E-10,   4.677512030E-13,
               -2.753282690E+04,   1.963950250E+01] ),
       NASA( [ 1374.00,  5000.00], [  9.914219840E+00,   1.460307090E-02, 
               -5.060857650E-06,   7.926828550E-10,  -4.627396450E-14,
               -3.111674230E+04,  -2.861132150E+01] )
             ),
    transport = gas_transport(
                     geom = "nonlinear",
                     diam = 4.86,
                     well_depth = 435.5,
                     dipole = 2.9,
                     rot_relax = 1),
    note = "5/ 4/92 therm"
       )

species(name = "ch3coch2",
    atoms = " C:3  H:5  O:1 ",
    thermo = (
       NASA( [  300.00,  1391.00], [  1.803391870E+00,   3.014070850E-02, 
               -1.935055520E-05,   6.381990340E-09,  -8.661031800E-13,
               -5.372332610E+03,   1.780464080E+01] ),
       NASA( [ 1391.00,  5000.00], [  1.023039750E+01,   1.164941610E-02, 
               -4.010055370E-06,   6.252052460E-10,  -3.637843620E-14,
               -8.443804620E+03,  -2.791972200E+01] )
             ),
    transport = gas_transport(
                     geom = "nonlinear",
                     diam = 4.86,
                     well_depth = 435.5,
                     dipole = 2.9,
                     rot_relax = 1),
    note = "5/ 4/92 therm"
       )

species(name = "c2h5cho",
    atoms = " C:3  H:6  O:1 ",
    thermo = (
       NASA( [  300.00,  1378.00], [  2.163084440E+00,   2.955012640E-02, 
               -1.524462520E-05,   3.495039470E-09,  -2.388966270E-13,
               -2.422601370E+04,   1.611533480E+01] ),
       NASA( [ 1378.00,  5000.00], [  1.024276950E+01,   1.396419890E-02, 
               -4.762480010E-06,   7.381057060E-10,  -4.277595030E-14,
               -2.741431350E+04,  -2.853468430E+01] )
             ),
    transport = gas_transport(
                     geom = "nonlinear",
                     diam = 4.662,
                     well_depth = 435.2,
                     dipole = 2.7,
                     rot_relax = 1),
    note = "6/26/95 therm"
       )

species(name = "c2h5co",
    atoms = " C:3  H:5  O:1 ",
    thermo = (
       NASA( [  300.00,  1373.00], [  2.933139460E+00,   2.474279110E-02, 
               -1.212220030E-05,   2.347010480E-09,  -5.268433380E-14,
               -5.696630630E+03,   1.359583550E+01] ),
       NASA( [ 1373.00,  5000.00], [  9.878819970E+00,   1.175156760E-02, 
               -4.006149230E-06,   6.208506170E-10,  -3.598352250E-14,
               -8.472922830E+03,  -2.492351960E+01] )
             ),
    transport = gas_transport(
                     geom = "nonlinear",
                     diam = 4.82,
                     well_depth = 424.6,
                     rot_relax = 1),
    note = "6/26/95 therm"
       )

species(name = "c2h5o",
    atoms = " C:2  H:5  O:1 ",
    thermo = (
       NASA( [  300.00,  1389.00], [  4.944207080E-01,   2.717744340E-02, 
               -1.659090100E-05,   5.152042000E-09,  -6.484969150E-13,
               -3.352529250E+03,   2.280793780E+01] ),
       NASA( [ 1389.00,  5000.00], [  7.873397720E+00,   1.130729070E-02, 
               -3.844214210E-06,   5.944141050E-10,  -3.438945380E-14,
               -6.072749530E+03,  -1.734167900E+01] )
             ),
    transport = gas_transport(
                     geom = "nonlinear",
                     diam = 4.41,
                     well_depth = 470.6,
                     rot_relax = 1.5),
    note = "3/12/95 therm"
       )

species(name = "ch3o2",
    atoms = " C:1  H:3  O:2 ",
    thermo = (
       NASA( [  300.00,  1385.00], [  4.261469060E+00,   1.008735990E-02, 
               -3.215061840E-06,   2.094092670E-10,   4.183391030E-14,
               -6.843942590E+02,   5.163303200E+00] ),
       NASA( [ 1385.00,  5000.00], [  5.957878910E+00,   7.907286260E-03, 
               -2.682462340E-06,   4.138913370E-10,  -2.390073300E-14,
               -1.535748380E+03,  -4.719638860E+00] )
             ),
    transport = gas_transport(
                     geom = "nonlinear",
                     diam = 3.626,
                     well_depth = 481.8,
                     dipole = 1.7,
                     rot_relax = 1),
    note = "7/13/98 therm"
       )

species(name = "c2h5o2",
    atoms = " C:2  H:5  O:2 ",
    thermo = (